#------------------------------------------------------------------------------#
# simulation settings
#------------------------------------------------------------------------------#

##### simulation variables

variable        seed 	equal  20902
variable        T       equal  300	    #K
variable        p       equal  0.0 	#bar
variable        damp_T  equal  100 		  	#K
variable        damp_P  equal  1000.0	  	#bar
variable        dT      equal  1.0 		 	#fs
variable        kb      equal  0.0019872041

## system setup ##

units           real
atom_style      full
boundary        p p p

pair_style      lj/cut/coul/long 12.500
bond_style      harmonic
angle_style     hybrid cosine/periodic fourier
dihedral_style  harmonic
improper_style  fourier
kspace_style 	ewald 0.000001

dielectric 	 	1.0
pair_modify 	tail yes mix arithmetic
special_bonds 	lj/coul 0.0 0.0 1.0

read_data 	 	../data.emin_sod-4c_Zn-2c_mim_fe
Reading data file ...
  triclinic box = (4.5054746 4.3760097 4.4164229) to (20.786525 20.913779 20.965143) with tilt (-0.95270579 -0.51398262 -1.0127119)
  reading atoms ...
  276 atoms
  reading velocities ...
  276 velocities
  scanning bonds ...
  scanning angles ...
  scanning dihedrals ...
  scanning impropers ...
  reading bonds ...
  312 bonds
  reading angles ...
  576 angles
  reading dihedrals ...
  624 dihedrals
  reading impropers ...
  360 impropers
Finding 1-2 1-3 1-4 neighbors ...
     4 = max # of 1-2 neighbors
     8 = max # of 1-3 neighbors
    12 = max # of special neighbors
include 	 	../non_bonded_sod-4c_Zn-2c_mim.param
### Parameters for Equilibration ###

### Parameters for MOF ###

mass 1 65.380000000
mass 2 14.006700000
mass 3 12.010700000
mass 4 1.007940000
mass 5 12.010700000

bond_coeff 1 165.837318 1.881712
bond_coeff 2 663.718927 1.345073
bond_coeff 3 369.943935 1.486000
bond_coeff 4 462.655054 1.379256
bond_coeff 5 357.440381 1.081418
bond_coeff 6 331.069389 1.109401

angle_coeff 1 fourier 197.524216 0.343737 0.374972 0.281246
angle_coeff 2 cosine/periodic 45.889625 -1 3
angle_coeff 3 cosine/periodic 120.000516 -1 3
angle_coeff 4 cosine/periodic 212.442573 -1 3
angle_coeff 5 cosine/periodic 136.548728 -1 3
angle_coeff 6 cosine/periodic 153.699352 -1 3
angle_coeff 7 cosine/periodic 79.786967 -1 3
angle_coeff 8 cosine/periodic 57.289016 -1 3
angle_coeff 9 fourier 121.777217 0.343737 0.374972 0.281246
angle_coeff 10 fourier 75.498766 0.343737 0.374972 0.281246

dihedral_coeff 1 3.368555 -1 2
dihedral_coeff 2 0.166667 1 3

improper_coeff 1 2.000000 1.000000 -1.000000 0.000000 0

pair_coeff 1 1 0.124 2.46155
pair_coeff 1 2 0.0924986 2.86112
pair_coeff 1 3 0.114105 2.9462
pair_coeff 1 4 0.0738647 2.51634
pair_coeff 1 5 0.114105 2.9462
pair_coeff 2 2 0.069 3.26069
pair_coeff 2 3 0.0851176 3.34577
pair_coeff 2 4 0.0550999 2.91591
pair_coeff 2 5 0.0851176 3.34577
pair_coeff 3 3 0.105 3.43085
pair_coeff 3 4 0.0679706 3.00099
pair_coeff 3 5 0.105 3.43085
pair_coeff 4 4 0.044 2.57113
pair_coeff 4 5 0.0679706 3.00099
pair_coeff 5 5 0.105 3.43085

group			fram type < 6
276 atoms in group fram

fix				SPRING fram spring/self 10 	# harmonic restraint to framework

#------------------------------------------------------------------------------#
# equilibration
#------------------------------------------------------------------------------#

reset_timestep	0

variable 		delta equal 1e-08
fix 			ADAPT all adapt 0 atom charge v_delta scale yes

thermo_style	custom step etotal ke pe temp press density vol evdwl etail ecoul elong epair
thermo 			5000
velocity 		all create 300 20902

fix				f1 all nve
fix 			f2 all langevin 300 300 100 20902 zero yes
compute 		c1 all temp/com
fix_modify		f2 temp c1

run				200000
Ewald initialization ...
  G vector (1/distance) = 0.24281392
  estimated absolute RMS force accuracy = 0.00037231444
  estimated relative force accuracy = 1.1212139e-06
  KSpace vectors: actual max1d max3d = 131 4 364
                  kxmax kymax kzmax  = 4 4 4
Generated 0 of 10 mixed pair_coeff terms from arithmetic mixing rule
  update every 1 steps, delay 10 steps, check yes
Step         TotEng         KinEng         PotEng          Temp          Press         Density         Volume         E_vdwl         E_tail         E_coul         E_long         E_pair
0   1177.4706      245.91683      931.55372      300            10489.585      1.0177122      4455.7805     -161.77947     -4.6924513     -6.8098253e-14 -8.9349675e-14 -161.77947
Averages over the last 21 of 41 rows, steps 100000 to 200000:
TotEng KinEng PotEng Temp Press Density Volume E_vdwl E_tail E_coul E_long E_pair
1410.69 252.88 1157.81 308.495 6528.05 1.01771 4455.78 -150.144 -4.69245 -6.75432e-14 -8.93476e-14 -150.144
Loop time of 31.1841 on 4 procs for 200000 steps with 276 atoms

unfix			ADAPT

#------------------------------------------------------------------------------#
# sampling
#------------------------------------------------------------------------------#

reset_timestep	0

variable		elec equal 2*(elong+ecoul)
variable		dudlam equal v_elec/1e-08
fix				ELEC all ave/time 250 1 250 v_dudlam file q_1e-08.lmp

thermo_style	custom step etotal ke pe temp press density vol evdwl etail ecoul elong epair v_elec
thermo			250

run 			500000
Ewald initialization ...
  G vector (1/distance) = 0.2041222
  estimated absolute RMS force accuracy = 2.2911025e-16
  estimated relative force accuracy = 6.8995872e-19
  KSpace vectors: actual max1d max3d = 2 1 13
                  kxmax kymax kzmax  = 1 1 1
Generated 0 of 10 mixed pair_coeff terms from arithmetic mixing rule
Step         TotEng         KinEng         PotEng          Temp          Press         Density         Volume         E_vdwl         E_tail         E_coul         E_long         E_pair         v_elec
0   1411.1293      237.84623      1173.2831      290.15448      5801.7574      1.0177122      4455.7805     -141.70208     -4.6924513     -8.166424e-14  -7.5112556e-14 -141.70208     -3.1355359e-13
Averages over the last 1001 of 2001 rows, steps 250000 to 500000:
TotEng KinEng PotEng Temp Press Density Volume E_vdwl E_tail E_coul E_long E_pair v_elec
1406.51 251.466 1155.05 306.769 6689.28 1.01771 4455.78 -151.377 -4.69245 -8.16945e-14 -7.51109e-14 -151.377 -3.13611e-13
Loop time of 78.6228 on 4 procs for 500000 steps with 276 atoms

unfix			f1
unfix			f2
