data_image0
_chemical_formula_structural       Zn12NCNC2H2CH3NCNC2H2CH3NCNC2H2CH3NCNC2H2CH3NCNC2H2CH3NCNC2H2CH3NCNC2H2CH3NCNC2H2CH3NCNC2H2CH3NCNC2H2CH3NCNC2H2CH3NCNC2H2CH3NCNC2H2CH3NCNC2H2CH3NCNC2H2CH3NCNC2H2CH3NCNC2H2CH3NCNC2H2CH3NCNC2H2CH3NCNC2H2CH3NCNC2H2CH3NCNC2H2CH3NCNC2H2CH3NCNC2H2CH3
_chemical_formula_sum              "Zn12 N48 C96 H120"
_cell_length_a       16.2810508075825
_cell_length_b       16.565188616203812
_cell_length_c       16.58764316774355
_cell_angle_alpha    93.39211840862482
_cell_angle_beta     91.7756440188262
_cell_angle_gamma    93.29704415469588

_space_group_name_H-M_alt    "P 1"
_space_group_IT_number       1

loop_
  _space_group_symop_operation_xyz
  'x, y, z'

loop_
  _atom_site_type_symbol
  _atom_site_label
  _atom_site_symmetry_multiplicity
  _atom_site_fract_x
  _atom_site_fract_y
  _atom_site_fract_z
  _atom_site_occupancy
  Zn  Zn1       1.0  0.32513991242436985  0.7895872680989089  0.02211923707709329  1.0000
  Zn  Zn2       1.0  0.8164199128653565  0.28468366222312164  0.5168365693016937  1.0000
  Zn  Zn3       1.0  0.3043378439456294  0.7784997512379765  0.5223432971891409  1.0000
  Zn  Zn4       1.0  0.06204565282473862  0.7950358688049687  0.24794390556062143  1.0000
  Zn  Zn5       1.0  0.799958439933802  0.27382528858390187  0.02343277811957467  1.0000
  Zn  Zn6       1.0  0.5607552764731368  0.2950319695959594  0.7534311699890163  1.0000
  Zn  Zn7       1.0  0.3131372011960994  0.03302223826923689  0.7811707654306854  1.0000
  Zn  Zn8       1.0  0.05923334982154249  0.2775585193607939  0.7916858866731075  1.0000
  Zn  Zn9       1.0  0.30675757165017614  0.5371871429635852  0.7573445376688092  1.0000
  Zn  Zn10      1.0  0.8221295184604077  0.0288630109709056  0.2439961127463599  1.0000
  Zn  Zn11      1.0  0.5656937919894307  0.7721482531593012  0.296377556311166  1.0000
  Zn  Zn12      1.0  0.8037631415786685  0.5307728415544356  0.29242173805017946  1.0000
  N   N1        1.0  0.34161298521854033  0.6146236092653522  0.8437574808986162  1.0000
  C   C1        1.0  0.30222497214480176  0.6713975078898624  0.8861952696949068  1.0000
  N   N2        1.0  0.3465104742462509  0.7021114064514546  0.9521969456628948  1.0000
  C   C2        1.0  0.4183864118436796  0.6667733014078177  0.9492891149887437  1.0000
  C   C3        1.0  0.415924364796128  0.6143180316831429  0.8823418502161129  1.0000
  H   H1        1.0  0.47046854983536973  0.6813145345925243  0.990846496173827  1.0000
  H   H2        1.0  0.46606744874900236  0.5785870743104782  0.8628545562715392  1.0000
  C   C4        1.0  0.22963468827084954  0.7103683513219881  0.8530289477499651  1.0000
  H   H3        1.0  0.24812422756172903  0.7741302549498394  0.8428805853539839  1.0000
  H   H4        1.0  0.1784009795381063  0.7089578600880279  0.8949340083086507  1.0000
  H   H5        1.0  0.20909770320912568  0.6801272110707244  0.793853223240198  1.0000
  N   N3        1.0  0.9864153160563786  0.24611477329175635  0.7002239565846912  1.0000
  C   C5        1.0  0.9484751954491185  0.2935067889818198  0.6489049849573504  1.0000
  N   N4        1.0  0.8939485423317125  0.2515452152149902  0.5965710860742355  1.0000
  C   C6        1.0  0.8985754823041935  0.17413916905485238  0.615915175872893  1.0000
  C   C7        1.0  0.9563604495370512  0.17052892146837473  0.6775491545749732  1.0000
  H   H6        1.0  0.8607216983849545  0.12356804535087207  0.5881499233610401  1.0000
  H   H7        1.0  0.9735198499282801  0.11629618369288397  0.7056309110951461  1.0000
  C   C8        1.0  0.9645564560372947  0.3824815902855101  0.6518806084052182  1.0000
  H   H8        1.0  0.9488468912675526  0.40840732858554846  0.712090407137722  1.0000
  H   H9        1.0  0.9273952533846349  0.4101072516479974  0.6054824466384694  1.0000
  H   H10       1.0  0.03041777292381931  0.39675490864586077  0.640976986113716  1.0000
  N   N5        1.0  0.2839519404772659  0.8496238764514357  0.609997347403848  1.0000
  C   C9        1.0  0.309643372144438  0.9265306520147588  0.6312618887244925  1.0000
  N   N6        1.0  0.2749186072285521  0.9546246866745376  0.6995506062841266  1.0000
  C   C10       1.0  0.22153433616345608  0.8940744028701156  0.7180955651561637  1.0000
  C   C11       1.0  0.22681227456196962  0.8301076922370481  0.6633110564323755  1.0000
  H   H11       1.0  0.18426482740402705  0.8941848165695093  0.7705810156625554  1.0000
  H   H12       1.0  0.19186561984008565  0.772407740850974  0.6626270326345517  1.0000
  C   C12       1.0  0.35377042367563494  0.9781949816837584  0.5746003663712828  1.0000
  H   H13       1.0  0.31925511539313106  0.9743981541944414  0.51587718517143  1.0000
  H   H14       1.0  0.41567303753803786  0.9560037491932047  0.5641797291885565  1.0000
  H   H15       1.0  0.3569672776570844  0.04245055309263912  0.5974590131378069  1.0000
  N   N7        1.0  0.6121114357033043  0.3030163402231847  0.6542998502373363  1.0000
  C   C13       1.0  0.691351736839038  0.3196858347703879  0.6370256190520912  1.0000
  N   N8        1.0  0.7100853843059312  0.2901885866838283  0.5628458665425352  1.0000
  C   C14       1.0  0.6379666966055842  0.2555761027890333  0.5317124219691741  1.0000
  C   C15       1.0  0.5780773236685349  0.26506524277723176  0.5867412791666611  1.0000
  H   H16       1.0  0.6292044517530657  0.2188881757026726  0.47607468439282996  1.0000
  H   H17       1.0  0.5158751382222779  0.23788410727440867  0.5812793380779273  1.0000
  C   C16       1.0  0.752901985002289  0.3601183279573134  0.6952217501453904  1.0000
  H   H18       1.0  0.7989251853116588  0.39493459780527257  0.6618162673907338  1.0000
  H   H19       1.0  0.782565013548909  0.3143907090120562  0.7304577002666193  1.0000
  H   H20       1.0  0.7228900734344054  0.40387010199978274  0.7357328661752776  1.0000
  N   N9        1.0  0.29194691842549075  0.6752456812422766  0.5638577710904188  1.0000
  C   C17       1.0  0.3251401840677295  0.655141718429176  0.6349603190618114  1.0000
  N   N10       1.0  0.2980098120809418  0.5813776039265047  0.6554127338011679  1.0000
  C   C18       1.0  0.24651358532768697  0.5527997617608984  0.5937735651744799  1.0000
  C   C19       1.0  0.24282928745996957  0.6104337703226989  0.5374750388361107  1.0000
  H   H21       1.0  0.20918774242313898  0.49648149550177906  0.5926939169547566  1.0000
  H   H22       1.0  0.202945737452078  0.6072898025180132  0.48384618794578893  1.0000
  C   C20       1.0  0.37795424874013944  0.7114723789009748  0.6901377352157959  1.0000
  H   H23       1.0  0.3418662148300851  0.734247461232753  0.7406053620698451  1.0000
  H   H24       1.0  0.40116739060765205  0.7651879543940098  0.65967816726787  1.0000
  H   H25       1.0  0.43057634629471214  0.6793781820003174  0.7138237876078792  1.0000
  N   N11       1.0  0.018663621853763024  0.8954316494741481  0.2315760990919018  1.0000
  C   C21       1.0  0.9568544474661902  0.9285569366201313  0.27116898416643304  1.0000
  N   N12       1.0  0.9288872359983612  0.9926163134867245  0.23497441100179306  1.0000
  C   C22       1.0  0.9763175984785348  0.0007604145287349873  0.17045180922887693  1.0000
  C   C23       1.0  0.03158873348112423  0.9414870783950563  0.16864230780119516  1.0000
  H   H26       1.0  0.9646597550668048  0.03932075710372285  0.12160424977973294  1.0000
  H   H27       1.0  0.07220724741317541  0.927928103339199  0.11989448149551096  1.0000
  C   C24       1.0  0.9119914783009145  0.8876429000990546  0.33520547203302425  1.0000
  H   H28       1.0  0.9540535921020968  0.8556594598986063  0.37397148076597636  1.0000
  H   H29       1.0  0.8669491661896958  0.8418349780698284  0.3064195990566029  1.0000
  H   H30       1.0  0.8797784477658985  0.9324309661376196  0.37289560932581955  1.0000
  N   N13       1.0  0.8757925130999122  0.6159806728494025  0.25750320614102873  1.0000
  C   C25       1.0  0.9444577342377319  0.6574491278899796  0.2895224710231607  1.0000
  N   N14       1.0  0.9714069368089681  0.7174359887450543  0.24364787502979057  1.0000
  C   C26       1.0  0.9155685200890717  0.7158890220329366  0.18210333820468194  1.0000
  C   C27       1.0  0.8568432321558819  0.6549223047755156  0.19113227710655223  1.0000
  H   H31       1.0  0.9167754237228475  0.758002201129483  0.13455806093141187  1.0000
  H   H32       1.0  0.8014603610116442  0.6421619290171827  0.15375205236252287  1.0000
  C   C28       1.0  0.983073735807027  0.6429276079321667  0.3688472384924357  1.0000
  H   H33       1.0  0.9353627267469113  0.6220667281473612  0.4102668420936875  1.0000
  H   H34       1.0  0.013078178264354756  0.7001111537169412  0.396283322879187  1.0000
  H   H35       1.0  0.029544120438776744  0.5972879469543038  0.36079930762374407  1.0000
  N   N15       1.0  0.7233625482462832  0.30222752545834863  0.9443075241704946  1.0000
  C   C29       1.0  0.6790140084758652  0.26400985474315486  0.8816705620177683  1.0000
  N   N16       1.0  0.6354497327932812  0.31500302644544065  0.8403355207486546  1.0000
  C   C30       1.0  0.6521043331549632  0.38832975053030516  0.8779951134753778  1.0000
  C   C31       1.0  0.7057779885434674  0.3804484995907853  0.941434323626061  1.0000
  H   H36       1.0  0.6262936507491434  0.44380565252411064  0.8605347562857685  1.0000
  H   H37       1.0  0.7300656284402266  0.42901964089138206  0.9831722931471952  1.0000
  C   C32       1.0  0.673928977554383  0.17580280642945634  0.8607647760137821  1.0000
  H   H38       1.0  0.6870484663838116  0.16509727192564894  0.7960172935090469  1.0000
  H   H39       1.0  0.6111687101887413  0.15065881866435493  0.8722809712560938  1.0000
  H   H40       1.0  0.7183067080961613  0.1445585521210655  0.8967444058978012  1.0000
  N   N17       1.0  0.3397402050790139  0.9725871104174177  0.8688590781569904  1.0000
  C   C33       1.0  0.2956164614223755  0.9291440900056616  0.9208414081455157  1.0000
  N   N18       1.0  0.3417616325210103  0.8775657883201068  0.9587706747984831  1.0000
  C   C34       1.0  0.4175145179223329  0.8892265725743216  0.9299430051513368  1.0000
  C   C35       1.0  0.41655684224376843  0.9477599988391415  0.8759054756665331  1.0000
  H   H41       1.0  0.4693412793126435  0.8538710954034839  0.944426029194923  1.0000
  H   H42       1.0  0.467409526813056  0.9664263491240884  0.8395661371182125  1.0000
  C   C36       1.0  0.2062068285640286  0.9338988213641963  0.9334937512816748  1.0000
  H   H43       1.0  0.17614912947318184  0.872044716775073  0.9310854638834026  1.0000
  H   H44       1.0  0.17706802759020035  0.9691977652088553  0.8871826499473905  1.0000
  H   H45       1.0  0.19755593439848607  0.9639276111864385  0.9937863831407198  1.0000
  N   N19       1.0  0.906096340582367  0.2851590265093842  0.9826880028264571  1.0000
  C   C37       1.0  0.9283043382427824  0.2575758764741847  0.9092110543705428  1.0000
  N   N20       1.0  0.002332444377139309  0.2882408263006925  0.8894232623464043  1.0000
  C   C38       1.0  0.030950225238051354  0.33236421346871275  0.9564470304139554  1.0000
  C   C39       1.0  0.9722808750071883  0.32983082921964196  0.013885388414976552  1.0000
  H   H46       1.0  0.09074267515200951  0.3647395458776008  0.9629212610180233  1.0000
  H   H47       1.0  0.976929535819158  0.36002707515298044  0.07365114247343163  1.0000
  C   C40       1.0  0.8831788375981197  0.19049753285090532  0.8618776971037877  1.0000
  H   H48       1.0  0.9279591764454737  0.1518770713164217  0.8325688123395737  1.0000
  H   H49       1.0  0.8413726231132899  0.21446962008694134  0.816447860871826  1.0000
  H   H50       1.0  0.8502214085715988  0.15186124426927103  0.9037654140059814  1.0000
  N   N21       1.0  0.21988408609163823  0.7988549200049233  0.4460200823757167  1.0000
  C   C41       1.0  0.18767612489739194  0.764049694907797  0.37552298905052717  1.0000
  N   N22       1.0  0.1260222843259695  0.8054485678150727  0.34486532087357064  1.0000
  C   C42       1.0  0.12097789149588856  0.8698024437019262  0.39713842177139314  1.0000
  C   C43       1.0  0.17664396570198715  0.8650005068157421  0.4591040073500235  1.0000
  H   H51       1.0  0.08162725567890616  0.9193299163273959  0.38962013009573543  1.0000
  H   H52       1.0  0.1853036011163085  0.9086423829287897  0.5100392573579099  1.0000
  C   C44       1.0  0.21919470636590477  0.6911852717044804  0.33401311114727056  1.0000
  H   H53       1.0  0.17131393104381787  0.6408978560029364  0.3321106945762636  1.0000
  H   H54       1.0  0.2754378732580456  0.6735269923556955  0.36628981591524856  1.0000
  H   H55       1.0  0.2345992866144022  0.7049483371900176  0.2715775151092069  1.0000
  N   N23       1.0  0.8048297500236151  0.10999672554644135  0.32524604268659096  1.0000
  C   C45       1.0  0.8434445651206535  0.14427148962584635  0.393111503646803  1.0000
  N   N24       1.0  0.8040743240675641  0.20790394616782049  0.42542268810320744  1.0000
  C   C46       1.0  0.7419125569867355  0.2161455896565767  0.3718960750516312  1.0000
  C   C47       1.0  0.7408324331696893  0.1556297425305775  0.3127321173005553  1.0000
  H   H56       1.0  0.7001858750989024  0.26438051232125614  0.37487339890580307  1.0000
  H   H57       1.0  0.6973495909869063  0.14673190891259402  0.2618927897259622  1.0000
  C   C48       1.0  0.9229375362332395  0.11784367336878665  0.4245792798579008  1.0000
  H   H58       1.0  0.9570757725224464  0.1689332253703586  0.45941118179365126  1.0000
  H   H59       1.0  0.960704283863844  0.09834718036241252  0.37330827614981715  1.0000
  H   H60       1.0  0.9115493769676974  0.06635886704700988  0.46314226636187633  1.0000
  N   N25       1.0  0.4138687174307024  0.789450548780827  0.4840217523296344  1.0000
  C   C49       1.0  0.4412691888751066  0.8160832704703808  0.41390541219035226  1.0000
  N   N26       1.0  0.5170711699903892  0.7918293398086498  0.3970212044988967  1.0000
  C   C50       1.0  0.5398864057946693  0.7517288846080928  0.46116463727908996  1.0000
  C   C51       1.0  0.47699533379425973  0.7495984500342083  0.5136038080900398  1.0000
  H   H61       1.0  0.5930647989320664  0.7157656704821391  0.46444120575735476  1.0000
  H   H62       1.0  0.4745706338546143  0.7112754138866367  0.5637726484844259  1.0000
  C   C52       1.0  0.3880492661216095  0.8543775492614082  0.35554565961943846  1.0000
  H   H63       1.0  0.34053373848935725  0.8874546923473711  0.38767972999748834  1.0000
  H   H64       1.0  0.35840758742473444  0.8069197669482825  0.3129181145210526  1.0000
  H   H65       1.0  0.4254335548777176  0.898827987999115  0.3229212484590227  1.0000
  N   N27       1.0  0.2227564888391207  0.7701114598538789  0.06744693601478868  1.0000
  C   C53       1.0  0.19174005735276278  0.8098211056698574  0.13141823838042854  1.0000
  N   N28       1.0  0.12671951282025362  0.7687132720647277  0.16057894801902295  1.0000
  C   C54       1.0  0.11629918491950719  0.700008833985495  0.11326521537020118  1.0000
  C   C55       1.0  0.1760189347715806  0.700252101181559  0.056953667354647575  1.0000
  H   H66       1.0  0.07077732078579979  0.6512347742600088  0.12177968281348384  1.0000
  H   H67       1.0  0.1886353278565025  0.6496034300664048  0.015918232320903947  1.0000
  C   C56       1.0  0.23348441994709002  0.8829977474898271  0.17334668465458436  1.0000
  H   H68       1.0  0.19289899663502008  0.9107314295372991  0.21818740617079113  1.0000
  H   H69       1.0  0.2509700489504545  0.9274061081607751  0.1286408654236164  1.0000
  H   H70       1.0  0.28949766391034704  0.8655342706811653  0.20557763169758037  1.0000
  N   N29       1.0  0.7801816566933897  0.1694219273732469  0.059203025034417545  1.0000
  C   C57       1.0  0.8268265378383397  0.1405585304518735  0.11788843265363846  1.0000
  N   N30       1.0  0.7919881386064241  0.07367703685593074  0.14742310006467063  1.0000
  C   C58       1.0  0.7199080023296931  0.0593673639491199  0.10576994180970134  1.0000
  C   C59       1.0  0.7119454404164274  0.11910813167971379  0.05253292526226616  1.0000
  H   H71       1.0  0.6726637055395601  0.013868496660717211  0.11924269856162684  1.0000
  H   H72       1.0  0.656368281400325  0.1297758236535449  0.01839291668997034  1.0000
  C   C60       1.0  0.9015133764671627  0.18535598468508674  0.15513737336501676  1.0000
  H   H73       1.0  0.9235251859490827  0.15567049224682017  0.20910703786438023  1.0000
  H   H74       1.0  0.8877952042022175  0.24767069145197906  0.17526761052737827  1.0000
  H   H75       1.0  0.950500800013  0.187396097801672  0.11032830540638372  1.0000
  N   N31       1.0  0.49328313811868396  0.7946478189825565  0.2100850860521304  1.0000
  C   C61       1.0  0.4315060208845108  0.758200208548108  0.16246456057355507  1.0000
  N   N32       1.0  0.40522850213474204  0.8060632522226696  0.1054697775743425  1.0000
  C   C62       1.0  0.4489341765746831  0.8768345945346133  0.12004650738080591  1.0000
  C   C63       1.0  0.5028168844211092  0.8696381463840677  0.18302961729489242  1.0000
  H   H76       1.0  0.44124390708944927  0.9310665078555915  0.08803926282077623  1.0000
  H   H77       1.0  0.5455031036348066  0.9174237657769714  0.2086329598937411  1.0000
  C   C64       1.0  0.3927918610555909  0.6768657449302947  0.1731550229552179  1.0000
  H   H78       1.0  0.3262565419475096  0.6763458459466527  0.15700160578438416  1.0000
  H   H79       1.0  0.39951770076316445  0.6622460192876112  0.23727435975809108  1.0000
  H   H80       1.0  0.4210466798269179  0.6319141362315978  0.1322841181956078  1.0000
  N   N33       1.0  0.7904697667184836  0.4416405913279364  0.2158470938423278  1.0000
  C   C65       1.0  0.8154889433494059  0.42046511397640596  0.141172040625821  1.0000
  N   N34       1.0  0.7876567306684109  0.34457690912632566  0.11535764520843372  1.0000
  C   C66       1.0  0.7412400717446406  0.3185800500469715  0.17521068759994418  1.0000
  C   C67       1.0  0.7441075569098748  0.37700020188985695  0.23660855102707545  1.0000
  H   H81       1.0  0.7075148288903804  0.26036770844406343  0.17422094043052416  1.0000
  H   H82       1.0  0.7124694306354085  0.3737391262549102  0.29249192253775425  1.0000
  C   C68       1.0  0.8602200075834668  0.4774763919498588  0.09019272324562588  1.0000
  H   H83       1.0  0.8202102927877961  0.5270698191966621  0.07741740631709138  1.0000
  H   H84       1.0  0.8736298548118777  0.4475636226073754  0.031222875461145883  1.0000
  H   H85       1.0  0.9180372250450136  0.5017849398815861  0.12206245634175117  1.0000
  N   N35       1.0  0.8507314202889419  0.38318805500317465  0.4717842011115544  1.0000
  C   C69       1.0  0.805393073377058  0.4406944975138716  0.4411464143471406  1.0000
  N   N36       1.0  0.845583664929807  0.482534722167013  0.3853892989589966  1.0000
  C   C70       1.0  0.9203086276404583  0.4516998978769585  0.3834699411181714  1.0000
  C   C71       1.0  0.9236644817486889  0.39152321138480256  0.4365511063127116  1.0000
  H   H86       1.0  0.9648552944329543  0.4635415795450887  0.3378892221766621  1.0000
  H   H87       1.0  0.9718757301189989  0.3494281968913593  0.4410475949758233  1.0000
  C   C72       1.0  0.7171913994988174  0.4482757723596089  0.457730579948399  1.0000
  H   H88       1.0  0.6791653872763556  0.39770073745170226  0.4267782156528016  1.0000
  H   H89       1.0  0.6967140419788664  0.5066557133176399  0.43789364149532606  1.0000
  H   H90       1.0  0.7089127502995765  0.44755193306700286  0.5236848236909709  1.0000
  N   N37       1.0  0.13846361070012225  0.20023591461919388  0.8113119172041559  1.0000
  C   C73       1.0  0.18267837367696949  0.1491878204595798  0.7658714461997842  1.0000
  N   N38       1.0  0.2324887814676626  0.10603852732746888  0.8108084056931563  1.0000
  C   C74       1.0  0.2178343443803663  0.12946377141359  0.8876643371065861  1.0000
  C   C75       1.0  0.16094619132953492  0.1867694769505177  0.8879318075566291  1.0000
  H   H91       1.0  0.24820236986135868  0.10762340694482653  0.9404069751137291  1.0000
  H   H92       1.0  0.13799419051079065  0.21693840560118294  0.9413732371287403  1.0000
  C   C76       1.0  0.17898138957161214  0.14137144370828447  0.6764745434549302  1.0000
  H   H93       1.0  0.12865743365543314  0.17604228251498055  0.6522603182947333  1.0000
  H   H94       1.0  0.16746830499647647  0.07662993190967482  0.656206379385143  1.0000
  H   H95       1.0  0.23864925478420118  0.16430728967667618  0.6536901653345607  1.0000
  N   N39       1.0  0.10905340590129597  0.382384929627491  0.7841099755233186  1.0000
  C   C77       1.0  0.18193187205149886  0.4060714795204146  0.7552694211062806  1.0000
  N   N40       1.0  0.20451483070937138  0.48423465958962414  0.7764027545284068  1.0000
  C   C78       1.0  0.14086700054159373  0.5118799260030886  0.8173792818288513  1.0000
  C   C79       1.0  0.0820934650293006  0.44988730413289046  0.8211901992076113  1.0000
  H   H96       1.0  0.137803237886716  0.5717424175473043  0.8455834333078954  1.0000
  H   H97       1.0  0.024716225431363315  0.45314152453451256  0.8521752699566844  1.0000
  C   C80       1.0  0.23143539609064656  0.35131683840360695  0.7058744946531788  1.0000
  H   H98       1.0  0.27100545535005494  0.3865856876180996  0.6660612888365546  1.0000
  H   H99       1.0  0.18951720814464168  0.31000303432455406  0.666819700504949  1.0000
  H   H100      1.0  0.2695043267200241  0.3162369635344684  0.7460231790504057  1.0000
  N   N41       1.0  0.4127708539800035  0.08818597743071166  0.7541115505739401  1.0000
  C   C81       1.0  0.43880200422730176  0.16293727321657414  0.782697358353289  1.0000
  N   N42       1.0  0.5098303411750692  0.1891797815005456  0.7509802888367143  1.0000
  C   C82       1.0  0.5333174789636578  0.12494027170747657  0.7058107502019738  1.0000
  C   C83       1.0  0.47494688250741735  0.0624337680483098  0.7095328903282556  1.0000
  H   H101      1.0  0.5893894522763717  0.12361229045129019  0.6724190228618772  1.0000
  H   H102      1.0  0.47916075794770724  0.0015049171043206577  0.6837055301619378  1.0000
  C   C84       1.0  0.4062687311660548  0.2001227279570439  0.8570069761829179  1.0000
  H   H103      1.0  0.35903799395464125  0.24280519781521082  0.8419007983087683  1.0000
  H   H104      1.0  0.45801439386177684  0.22889838587877276  0.8948553417879475  1.0000
  H   H105      1.0  0.3797598936134363  0.15191071746677776  0.893223678471428  1.0000
  N   N43       1.0  0.3825989622953602  0.4583541171010346  0.7673150531434687  1.0000
  C   C85       1.0  0.4378809195655436  0.4183023573306056  0.7242433247436135  1.0000
  N   N44       1.0  0.48099057294146114  0.37006830764351856  0.7701341940756206  1.0000
  C   C86       1.0  0.45375744517825195  0.3833160238292368  0.8450582354381804  1.0000
  C   C87       1.0  0.3910998842084329  0.43341949293047466  0.8425006098248419  1.0000
  H   H106      1.0  0.4787531019828946  0.3590755861559749  0.8989805850255065  1.0000
  H   H107      1.0  0.3560257125436318  0.4539897920878429  0.8934259974038096  1.0000
  C   C88       1.0  0.4489525663269575  0.42510026588280075  0.6366891785024184  1.0000
  H   H108      1.0  0.5154554222523184  0.43403375578222353  0.6252105551814185  1.0000
  H   H109      1.0  0.41683819314995746  0.477451421528123  0.6154142466307788  1.0000
  H   H110      1.0  0.42331608385227426  0.3687450883007107  0.6036640673369101  1.0000
  N   N45       1.0  0.7521487082777756  0.936602796529947  0.25037740442201306  1.0000
  C   C89       1.0  0.6935747438326594  0.9110303196300072  0.30021548005094983  1.0000
  N   N46       1.0  0.6589458797548517  0.8377999063747869  0.2750379220900858  1.0000
  C   C90       1.0  0.6982157849245872  0.8164461640614395  0.20755201034978454  1.0000
  C   C91       1.0  0.7550246927697329  0.8767808599001246  0.19243606096513655  1.0000
  H   H111      1.0  0.683568431245689  0.7615384431670307  0.16988030013742716  1.0000
  H   H112      1.0  0.7954178773900323  0.8779729025370757  0.14178334393345993  1.0000
  C   C92       1.0  0.663307594869259  0.961823565423942  0.3680456806242001  1.0000
  H   H113      1.0  0.6281854281202344  0.9234000752901369  0.40903102897747956  1.0000
  H   H114      1.0  0.6230016338599041  0.006926332220779097  0.3437825800627261  1.0000
  H   H115      1.0  0.7163088255522791  0.9933587854687499  0.4025315363745026  1.0000
  N   N47       1.0  0.697298495852845  0.5707013411200863  0.2996147908601996  1.0000
  C   C93       1.0  0.6792549529178556  0.6466887410476435  0.3218991540164034  1.0000
  N   N48       1.0  0.6044704221095233  0.6656893065539685  0.29351312247260153  1.0000
  C   C94       1.0  0.5723460482882915  0.5964385498099435  0.25573088183137194  1.0000
  C   C95       1.0  0.6291341857249162  0.5385958117267762  0.25900341234035684  1.0000
  H   H116      1.0  0.5142647147199367  0.5889711659987417  0.2230001835471329  1.0000
  H   H117      1.0  0.6233817713057642  0.4797616864901249  0.2268548772815291  1.0000
  C   C96       1.0  0.739798042522994  0.7050095729455884  0.365523845656943  1.0000
  H   H118      1.0  0.7088048346236141  0.7548097537085331  0.39701262345144855  1.0000
  H   H119      1.0  0.7819639630878007  0.7307344254579692  0.32178272934021085  1.0000
  H   H120      1.0  0.7757020539708843  0.6733041108844101  0.41047264427830843  1.0000
