#------------------------------------------------------------------------------#
# simulation settings
#------------------------------------------------------------------------------#

##### simulation variables

variable        seed 	equal  509579
variable        T       equal  300	    #K
variable        p       equal  0.0 	#bar
variable        damp_T  equal  100 		  	#K
variable        damp_P  equal  1000.0	  	#bar
variable        dT      equal  1.0 		 	#fs
variable        kb      equal  0.0019872041

## system setup ##

units           real
atom_style      full
boundary        p p p

pair_style      lj/cut/coul/long 12.500
bond_style      harmonic
angle_style     hybrid cosine/periodic fourier
dihedral_style  harmonic
improper_style  fourier
kspace_style 	ewald 0.000001

dielectric      1.0
pair_modify     tail yes mix arithmetic
special_bonds   lj/coul 0.0 0.0 1.0
read_data       data.sod-4c_Zn-2c_mim_new 				extra/bond/per/atom 40 				extra/angle/per/atom 40 				extra/dihedral/per/atom 40 				extra/improper/per/atom 40 				extra/special/per/atom 40
Reading data file ...
  triclinic box = (0 0 0) to (25.292 25.289789 25.381566) with tilt (-0.403023 -0.130241 -0.071192)
  reading atoms ...
  276 atoms
  scanning bonds ...
  scanning angles ...
  scanning dihedrals ...
  scanning impropers ...
  reading bonds ...
  312 bonds
  reading angles ...
  576 angles
  reading dihedrals ...
  624 dihedrals
  reading impropers ...
  360 impropers
Finding 1-2 1-3 1-4 neighbors ...
     4 = max # of 1-2 neighbors
     8 = max # of 1-3 neighbors
    52 = max # of special neighbors

include			emin_sod-4c_Zn-2c_mim.param
### Parameters for Equilibration ###

### Parameters for MOF ###

mass 1 65.380000000
mass 2 14.006700000
mass 3 12.010700000
mass 4 1.007940000
mass 5 12.010700000

pair_coeff 1 1 0.124000 2.461553
pair_coeff 2 2 0.069000 3.260689
pair_coeff 3 3 0.105000 3.430851
pair_coeff 4 4 0.044000 2.571134
pair_coeff 5 5 0.105000 3.430851

bond_coeff 1 165.837318 1.881712
bond_coeff 2 663.718927 1.345073
bond_coeff 3 369.943935 1.486000
bond_coeff 4 462.655054 1.379256
bond_coeff 5 357.440381 1.081418
bond_coeff 6 331.069389 1.109401

angle_coeff 1 fourier 197.524216 0.343737 0.374972 0.281246
angle_coeff 2 cosine/periodic 45.889625 -1 3
angle_coeff 3 cosine/periodic 120.000516 -1 3
angle_coeff 4 cosine/periodic 212.442573 -1 3
angle_coeff 5 cosine/periodic 136.548728 -1 3
angle_coeff 6 cosine/periodic 153.699352 -1 3
angle_coeff 7 cosine/periodic 79.786967 -1 3
angle_coeff 8 cosine/periodic 57.289016 -1 3
angle_coeff 9 fourier 121.777217 0.343737 0.374972 0.281246
angle_coeff 10 fourier 75.498766 0.343737 0.374972 0.281246

dihedral_coeff 1 3.368555 -1 2
dihedral_coeff 2 0.166667 1 3

improper_coeff 1 2.000000 1.000000 -1.000000 0.000000 0

reset_timestep  0
fix             f0 all box/relax aniso 0 vmax 0.001
thermo          10
thermo_style    custom step lx ly lz press pxx pyy pzz
min_style       cg
minimize        1e-10 1e-10 100000 100000
Ewald initialization ...
  G vector (1/distance) = 0.23413916
  estimated absolute RMS force accuracy = 0.00033899461
  estimated relative force accuracy = 1.0208722e-06
  KSpace vectors: actual max1d max3d = 457 6 1098
                  kxmax kymax kzmax  = 6 6 6
Generated 10 of 10 mixed pair_coeff terms from arithmetic mixing rule
  update every 1 steps, delay 0 steps, check yes
Step           Lx             Ly             Lz           Press           Pxx            Pyy            Pzz
0   25.292         25.289789      25.381566     -129566.2      -131331.74     -126804.86     -130562
Averages over the last 224 of 448 rows, steps 2240 to 4461:
Lx Ly Lz Press Pxx Pyy Pzz
16.4212 16.737 16.7981 -90.8987 -85.7277 -103.249 -83.7194
Loop time of 6.22707 on 1 procs for 4461 steps with 276 atoms

Minimization stats:
  Stopping criterion = linesearch alpha is zero
  Energy initial, next-to-last, final =
  Force two-norm initial, final = 53279.813 10.255916
  Force max component initial, final = 31095.13 5.4641791
  Final line search alpha, max atom move = 7.1486204e-11 3.9061342e-10
  Iterations, force evaluations = 4461 6998

unfix           f0

##### NVT/NPT Dynamics

reset_timestep  0

velocity 		all create 300 300

fix 		 	f1 all nve
fix 		 	f2 all langevin 300 300 100 509579 zero yes
compute 		c1 all temp/com
fix_modify 		f2 temp c1

thermo_style 	custom step pe ke etotal evdwl ecoul epair emol econserve density vol
thermo 	 	 	5000

run 		 	50000
Ewald initialization ...
  G vector (1/distance) = 0.24263617
  estimated absolute RMS force accuracy = 0.00038483557
  estimated relative force accuracy = 1.1589209e-06
  KSpace vectors: actual max1d max3d = 127 4 364
                  kxmax kymax kzmax  = 4 4 4
Generated 10 of 10 mixed pair_coeff terms from arithmetic mixing rule
Step         PotEng         KinEng         TotEng         E_vdwl         E_coul         E_pair         E_mol        Econserve       Density         Volume
0  -513.01742      245.91683     -267.10059     -129.48528     -669.76192     -1690.1828      1177.1653     -267.10059      0.99063572     4577.5676
Averages over the last 6 of 11 rows, steps 25000 to 50000:
PotEng KinEng TotEng E_vdwl E_coul E_pair E_mol Econserve Density Volume
-374.185 244.839 -129.346 -147.931 -672.75 -1711.48 1337.29 -129.346 0.990636 4577.57
Loop time of 32.4213 on 1 procs for 50000 steps with 276 atoms

unfix 		 	f1
unfix 		 	f2

fix 		 	f1 all npt temp 300 300 100 tri 0 0 1000
fix_modify 		f1 temp c1
run 		 	50000
Ewald initialization ...
  G vector (1/distance) = 0.24263617
  estimated absolute RMS force accuracy = 0.00038483557
  estimated relative force accuracy = 1.1589209e-06
  KSpace vectors: actual max1d max3d = 127 4 364
                  kxmax kymax kzmax  = 4 4 4
Generated 10 of 10 mixed pair_coeff terms from arithmetic mixing rule
Step         PotEng         KinEng         TotEng         E_vdwl         E_coul         E_pair         E_mol        Econserve       Density         Volume
50000  -382.09462      226.2764      -155.81822     -155.07736     -674.64613     -1720.4744      1338.3798     -155.81822      0.99063572     4577.5676
Averages over the last 6 of 11 rows, steps 75000 to 100000:
PotEng KinEng TotEng E_vdwl E_coul E_pair E_mol Econserve Density Volume
-387.589 253.75 -133.839 -142.397 -678.639 -1711.91 1324.32 -156.334 1.00935 4493.12
Loop time of 35.8199 on 1 procs for 50000 steps with 276 atoms

unfix 		 	f1

#------------------------------------------------------------------------------#
# final equilibration and save data file
#------------------------------------------------------------------------------#
### save volume
reset_timestep  0
min_style 		cg
minimize		1e-15 1e-15 100000 100000
Ewald initialization ...
  G vector (1/distance) = 0.24279147
  estimated absolute RMS force accuracy = 0.00037720854
  estimated relative force accuracy = 1.1359523e-06
  KSpace vectors: actual max1d max3d = 133 4 364
                  kxmax kymax kzmax  = 4 4 4
Generated 10 of 10 mixed pair_coeff terms from arithmetic mixing rule
Step         PotEng         KinEng         TotEng         E_vdwl         E_coul         E_pair         E_mol        Econserve       Density         Volume
0  -399.84329      236.8846      -162.95869     -136.47125     -680.53997     -1708.3569      1308.5136     -162.95869      1.0142496      4470.9921
Loop time of 0.477495 on 1 procs for 227 steps with 276 atoms

Minimization stats:
  Stopping criterion = linesearch alpha is zero
  Energy initial, next-to-last, final =
  Force two-norm initial, final = 708.83916 0.61938472
  Force max component initial, final = 103.95706 0.09394916
  Final line search alpha, max atom move = 3.1613375e-08 2.97005e-09
  Iterations, force evaluations = 227 497

reset_timestep  0
fix             f0 all box/relax tri 0 vmax 0.001
thermo          10
thermo_style    custom step lx ly lz press pxx pyy pzz
min_style       cg
minimize        1e-15 1e-15 100000 100000
Ewald initialization ...
  G vector (1/distance) = 0.24279147
  estimated absolute RMS force accuracy = 0.00037720854
  estimated relative force accuracy = 1.1359523e-06
  KSpace vectors: actual max1d max3d = 133 4 364
                  kxmax kymax kzmax  = 4 4 4
Generated 10 of 10 mixed pair_coeff terms from arithmetic mixing rule
Step           Lx             Ly             Lz           Press           Pxx            Pyy            Pzz
0   16.238994      16.420603      16.767012      1870.1882      2638.4979      3214.9022     -242.83549
Loop time of 0.945921 on 1 procs for 451 steps with 276 atoms

Minimization stats:
  Stopping criterion = linesearch alpha is zero
  Energy initial, next-to-last, final =
  Force two-norm initial, final = 176.77186 6.8465104
  Force max component initial, final = 159.62384 5.2660388
  Final line search alpha, max atom move = 2.3862409e-10 1.2566037e-09
  Iterations, force evaluations = 451 940

unfix           f0

min_style 		cg
minimize		1e-15 1e-15 100000 100000
Ewald initialization ...
  G vector (1/distance) = 0.24281392
  estimated absolute RMS force accuracy = 0.00037231444
  estimated relative force accuracy = 1.1212139e-06
  KSpace vectors: actual max1d max3d = 131 4 364
                  kxmax kymax kzmax  = 4 4 4
Generated 10 of 10 mixed pair_coeff terms from arithmetic mixing rule
Step           Lx             Ly             Lz           Press           Pxx            Pyy            Pzz
451   16.281051      16.53777       16.54872       2397.9183      2475.4747      2536.8144      2181.4658
Loop time of 0.203249 on 1 procs for 81 steps with 276 atoms

Minimization stats:
  Stopping criterion = linesearch alpha is zero
  Energy initial, next-to-last, final =
  Force two-norm initial, final = 1.1965897 0.3246446
  Force max component initial, final = 0.12540206 0.038543344
  Final line search alpha, max atom move = 8.7815127e-08 3.3846886e-09
  Iterations, force evaluations = 81 205

variable 		volume equal vol
The volume of sod-4c_Zn-2c_mim: 4455.78046690364

write_data 		data.emin_sod-4c_Zn-2c_mim pair ij
System init for write_data ...
Ewald initialization ...
  G vector (1/distance) = 0.24281392
  estimated absolute RMS force accuracy = 0.00037231444
  estimated relative force accuracy = 1.1212139e-06
  KSpace vectors: actual max1d max3d = 131 4 364
                  kxmax kymax kzmax  = 4 4 4
Generated 10 of 10 mixed pair_coeff terms from arithmetic mixing rule

### For strain energy
reset_timestep  0

fix				f1 all nve
fix 			f2 all langevin 0 0 100 509579

thermo_style 	custom step pe ke etotal evdwl ecoul epair emol econserve density vol
thermo 	 	 	5000

variable		strain equal pe
fix 			STRAIN all ave/time 1 100 100 v_strain file STRAIN.dat

run 			100
Ewald initialization ...
  G vector (1/distance) = 0.24281392
  estimated absolute RMS force accuracy = 0.00037231444
  estimated relative force accuracy = 1.1212139e-06
  KSpace vectors: actual max1d max3d = 131 4 364
                  kxmax kymax kzmax  = 4 4 4
Generated 10 of 10 mixed pair_coeff terms from arithmetic mixing rule
Step         PotEng         KinEng         TotEng         E_vdwl         E_coul         E_pair         E_mol        Econserve       Density         Volume
0  -640.99453      236.8846      -404.10992     -161.77868     -680.98253     -1734.3277      1093.3332     -404.10992      1.0177122      4455.7805
Loop time of 0.0979079 on 1 procs for 100 steps with 276 atoms

unfix			f1
unfix			f2
unfix			STRAIN

### For potential energy
reset_timestep	0
velocity 		all create 300 300
fix 		 	f1 all nve
fix 		 	f2 all langevin 300 300 100 509579 zero yes
fix_modify 		f2 temp c1
thermo_style 	custom step pe ke etotal evdwl ecoul epair emol econserve density vol
thermo 	 	 	5000
variable 	 	potential equal pe
fix				PE all ave/time 1 50000 50000 v_potential file PE.dat

run				50000
Ewald initialization ...
  G vector (1/distance) = 0.24281392
  estimated absolute RMS force accuracy = 0.00037231444
  estimated relative force accuracy = 1.1212139e-06
  KSpace vectors: actual max1d max3d = 131 4 364
                  kxmax kymax kzmax  = 4 4 4
Generated 10 of 10 mixed pair_coeff terms from arithmetic mixing rule
Step         PotEng         KinEng         TotEng         E_vdwl         E_coul         E_pair         E_mol        Econserve       Density         Volume
0  -597.07142      245.91683     -351.15459     -159.95769     -681.2304      -1732.8255      1135.754      -351.15459      1.0177122      4455.7805
Averages over the last 6 of 11 rows, steps 25000 to 50000:
PotEng KinEng TotEng E_vdwl E_coul E_pair E_mol Econserve Density Volume
-387.822 243.276 -144.546 -147.376 -679.32 -1718.18 1330.36 -144.546 1.01771 4455.78
Loop time of 53.0668 on 1 procs for 50000 steps with 276 atoms

unfix			f1
unfix			f2
unfix			PE
