# Generated by pormake.
# Topology sod, (4)-cn, num edge types: 1
# Building blocks:
#     Node 0, Type 0, BuildingBlock: 4c_Zn, # of connection points: 4
#     Node 1, Type 0, BuildingBlock: 4c_Zn, # of connection points: 4
#     Node 2, Type 0, BuildingBlock: 4c_Zn, # of connection points: 4
#     Node 3, Type 0, BuildingBlock: 4c_Zn, # of connection points: 4
#     Node 4, Type 0, BuildingBlock: 4c_Zn, # of connection points: 4
#     Node 5, Type 0, BuildingBlock: 4c_Zn, # of connection points: 4
#     Node 6, Type 0, BuildingBlock: 4c_Zn, # of connection points: 4
#     Node 7, Type 0, BuildingBlock: 4c_Zn, # of connection points: 4
#     Node 8, Type 0, BuildingBlock: 4c_Zn, # of connection points: 4
#     Node 9, Type 0, BuildingBlock: 4c_Zn, # of connection points: 4
#     Node 10, Type 0, BuildingBlock: 4c_Zn, # of connection points: 4
#     Node 11, Type 0, BuildingBlock: 4c_Zn, # of connection points: 4
#     Edge 12, Type (np.int64(0), np.int64(0)), BuildingBlock: 2c_mim, # of connection points: 2
#     Edge 13, Type (np.int64(0), np.int64(0)), BuildingBlock: 2c_mim, # of connection points: 2
#     Edge 14, Type (np.int64(0), np.int64(0)), BuildingBlock: 2c_mim, # of connection points: 2
#     Edge 15, Type (np.int64(0), np.int64(0)), BuildingBlock: 2c_mim, # of connection points: 2
#     Edge 16, Type (np.int64(0), np.int64(0)), BuildingBlock: 2c_mim, # of connection points: 2
#     Edge 17, Type (np.int64(0), np.int64(0)), BuildingBlock: 2c_mim, # of connection points: 2
#     Edge 18, Type (np.int64(0), np.int64(0)), BuildingBlock: 2c_mim, # of connection points: 2
#     Edge 19, Type (np.int64(0), np.int64(0)), BuildingBlock: 2c_mim, # of connection points: 2
#     Edge 20, Type (np.int64(0), np.int64(0)), BuildingBlock: 2c_mim, # of connection points: 2
#     Edge 21, Type (np.int64(0), np.int64(0)), BuildingBlock: 2c_mim, # of connection points: 2
#     Edge 22, Type (np.int64(0), np.int64(0)), BuildingBlock: 2c_mim, # of connection points: 2
#     Edge 23, Type (np.int64(0), np.int64(0)), BuildingBlock: 2c_mim, # of connection points: 2
#     Edge 24, Type (np.int64(0), np.int64(0)), BuildingBlock: 2c_mim, # of connection points: 2
#     Edge 25, Type (np.int64(0), np.int64(0)), BuildingBlock: 2c_mim, # of connection points: 2
#     Edge 26, Type (np.int64(0), np.int64(0)), BuildingBlock: 2c_mim, # of connection points: 2
#     Edge 27, Type (np.int64(0), np.int64(0)), BuildingBlock: 2c_mim, # of connection points: 2
#     Edge 28, Type (np.int64(0), np.int64(0)), BuildingBlock: 2c_mim, # of connection points: 2
#     Edge 29, Type (np.int64(0), np.int64(0)), BuildingBlock: 2c_mim, # of connection points: 2
#     Edge 30, Type (np.int64(0), np.int64(0)), BuildingBlock: 2c_mim, # of connection points: 2
#     Edge 31, Type (np.int64(0), np.int64(0)), BuildingBlock: 2c_mim, # of connection points: 2
#     Edge 32, Type (np.int64(0), np.int64(0)), BuildingBlock: 2c_mim, # of connection points: 2
#     Edge 33, Type (np.int64(0), np.int64(0)), BuildingBlock: 2c_mim, # of connection points: 2
#     Edge 34, Type (np.int64(0), np.int64(0)), BuildingBlock: 2c_mim, # of connection points: 2
#     Edge 35, Type (np.int64(0), np.int64(0)), BuildingBlock: 2c_mim, # of connection points: 2
# Relax obj value: 0.123
# Max RMSD: 0.152
# Mean RMSD: 0.151
data_sod-4c_Zn-2c_mim
_symmetry_space_group_name_H-M    P1
_symmetry_Int_Tables_number       1
_symmetry_cell_setting            triclinic
loop_
_symmetry_equiv_pos_as_xyz
'x, y, z'
_cell_length_a     25.292
_cell_length_b     25.293
_cell_length_c     25.382
_cell_angle_alpha  90.156
_cell_angle_beta   90.294
_cell_angle_gamma  90.913
loop_
_atom_site_label
_atom_site_type_symbol
_atom_site_fract_x
_atom_site_fract_y
_atom_site_fract_z
_atom_type_partial_charge
Zn0 Zn 0.00880 0.51170 0.75803 0.63880
Zn1 Zn 0.50882 0.01170 0.25803 0.63880
Zn2 Zn 0.01272 0.50885 0.25804 0.63880
Zn3 Zn 0.76034 0.51041 0.00915 0.63880
Zn4 Zn 0.51275 0.00885 0.75805 0.63880
Zn5 Zn 0.26036 0.01042 0.50915 0.63880
Zn6 Zn 0.00858 0.75956 0.50670 0.63880
Zn7 Zn 0.75990 0.00798 0.50628 0.63880
Zn8 Zn 0.01104 0.26000 0.50831 0.63880
Zn9 Zn 0.51102 0.76001 0.00830 0.63880
Zn10 Zn 0.25988 0.50798 0.00628 0.63880
Zn11 Zn 0.50856 0.25956 0.00670 0.63880
N12 N 0.03549 0.33878 0.61910 -0.32380
C13 C 0.00999 0.37929 0.64108 0.32120
N14 N 0.03272 0.39598 0.68644 -0.32380
C15 C 0.07436 0.36402 0.69320 -0.06320
C16 C 0.07626 0.32892 0.65163 -0.06320
H17 H 0.10106 0.36902 0.72926 0.10430
H18 H 0.10901 0.29852 0.64981 0.10430
C19 C 0.96150 0.40191 0.61787 -0.46910
H20 H 0.96954 0.44485 0.60650 0.13130
H21 H 0.92822 0.40001 0.64795 0.13130
H22 H 0.94946 0.37828 0.58131 0.13130
N23 N 0.65488 0.99866 0.42336 -0.32380
C24 C 0.64106 0.01166 0.37404 0.32120
N25 N 0.59367 0.99102 0.35966 -0.32380
C26 C 0.57725 0.96350 0.40213 -0.06320
C27 C 0.61480 0.96837 0.44149 -0.06320
H28 H 0.53772 0.94123 0.40101 0.10430
H29 H 0.60819 0.94810 0.48103 0.10430
C30 C 0.67532 0.04434 0.33943 -0.46910
H31 H 0.65451 0.08273 0.32951 0.13130
H32 H 0.68359 0.02167 0.30156 0.13130
H33 H 0.71422 0.05378 0.36059 0.13130
N34 N 0.98499 0.60174 0.35261 -0.32380
C35 C 0.01126 0.64177 0.37628 0.32120
N36 N 0.98071 0.66905 0.40980 -0.32380
C37 C 0.93286 0.64494 0.40661 -0.06320
C38 C 0.93549 0.60332 0.37158 -0.06320
H39 H 0.89854 0.66017 0.43099 0.10430
H40 H 0.89894 0.57755 0.36350 0.10430
C41 C 0.06750 0.65456 0.36536 -0.46910
H42 H 0.09190 0.64914 0.40280 0.13130
H43 H 0.07132 0.69731 0.35160 0.13130
H44 H 0.08256 0.62707 0.33330 0.13130
N45 N 0.32625 0.99620 0.38797 -0.32380
C46 C 0.37548 0.01025 0.37372 0.32120
N47 N 0.38966 0.98882 0.32730 -0.32380
C48 C 0.34716 0.95969 0.31201 -0.06320
C49 C 0.30798 0.96438 0.34921 -0.06320
H50 H 0.34813 0.93645 0.27348 0.10430
H51 H 0.26844 0.94282 0.34340 0.10430
C52 C 0.41022 0.04478 0.40659 -0.46910
H53 H 0.41957 0.08288 0.38437 0.13130
H54 H 0.44854 0.02344 0.41571 0.13130
H55 H 0.38927 0.05460 0.44497 0.13130
N56 N 0.00943 0.38607 0.32312 -0.32380
C57 C 0.01164 0.37508 0.37474 0.32120
N58 N 0.00010 0.32378 0.38513 -0.32380
C59 C 0.99133 0.30176 0.33753 -0.06320
C60 C 0.99676 0.34002 0.29928 -0.06320
H61 H 0.98071 0.25788 0.33436 0.10430
H62 H 0.99048 0.32925 0.25603 0.10430
C63 C 0.02353 0.41579 0.41536 -0.46910
H64 H 0.06197 0.40577 0.43648 0.13130
H65 H 0.98992 0.41679 0.44508 0.13130
H66 H 0.02788 0.45612 0.39578 0.13130
N67 N 0.67278 0.61111 0.98004 -0.32380
C68 C 0.64005 0.64102 0.00840 0.32120
N69 N 0.61669 0.67868 0.97935 -0.32380
C70 C 0.63609 0.67205 0.93043 -0.06320
C71 C 0.67047 0.63029 0.93074 -0.06320
H72 H 0.62316 0.69921 0.89716 0.10430
H73 H 0.69098 0.61803 0.89284 0.10430
C74 C 0.63190 0.63348 0.06566 -0.46910
H75 H 0.58890 0.62171 0.07316 0.13130
H76 H 0.64169 0.67195 0.08736 0.13130
H77 H 0.65883 0.60096 0.08052 0.13130
N78 N 0.62543 0.33172 0.98646 -0.32380
C79 C 0.64275 0.37815 0.00614 0.32120
N80 N 0.69287 0.38991 0.99200 -0.32380
C81 C 0.70762 0.34852 0.96220 -0.06320
C82 C 0.66605 0.31275 0.95855 -0.06320
H83 H 0.74908 0.34765 0.94484 0.10430
H84 H 0.67047 0.27488 0.93462 0.10430
C85 C 0.61000 0.41172 0.04053 -0.46910
H86 H 0.60256 0.45106 0.02017 0.13130
H87 H 0.63163 0.41919 0.07942 0.13130
H88 H 0.57060 0.39077 0.04844 0.13130
N89 N 0.42985 0.00495 0.65230 -0.32380
C90 C 0.37799 0.00600 0.64115 0.32120
N91 N 0.36815 0.01279 0.58937 -0.32380
C92 C 0.41640 0.01645 0.56719 -0.06320
C93 C 0.45444 0.01138 0.60586 -0.06320
H94 H 0.42017 0.02275 0.52290 0.10430
H95 H 0.49813 0.01307 0.59505 0.10430
C96 C 0.33667 0.00123 0.68210 -0.46910
H97 H 0.31192 0.96385 0.67476 0.13130
H98 H 0.31011 0.03719 0.68043 0.13130
H99 H 0.35618 0.99898 0.72260 0.13130
N100 N 0.03912 0.67255 0.60715 -0.32380
C101 C 0.01074 0.64405 0.64174 0.32120
N102 N 0.03861 0.60465 0.66355 -0.32380
C103 C 0.08674 0.60865 0.64116 -0.06320
C104 C 0.08719 0.65060 0.60659 -0.06320
H105 H 0.11891 0.57958 0.65224 0.10430
H106 H 0.12464 0.66085 0.58372 0.10430
C107 C 0.95456 0.65475 0.65330 -0.46910
H108 H 0.95051 0.66664 0.69644 0.13130
H109 H 0.92965 0.61762 0.64527 0.13130
H110 H 0.94029 0.68824 0.62712 0.13130
N111 N 0.63327 0.00315 0.69047 -0.32380
C112 C 0.64457 0.00732 0.63907 0.32120
N113 N 0.69694 0.01130 0.62996 -0.32380
C114 C 0.71940 0.00983 0.67822 -0.06320
C115 C 0.68025 0.00457 0.71552 -0.06320
H116 H 0.76424 0.01281 0.68256 0.10430
H117 H 0.69116 0.00226 0.75908 0.10430
C118 C 0.60324 0.00843 0.59753 -0.46910
H119 H 0.60738 0.97254 0.57068 0.13130
H120 H 0.60802 0.04611 0.57337 0.13130
H121 H 0.56251 0.00748 0.61658 0.13130
N122 N 0.89065 0.51841 0.19214 -0.32380
C123 C 0.87780 0.51032 0.14140 0.32120
N124 N 0.82519 0.51119 0.13274 -0.32380
C125 C 0.80418 0.51998 0.18063 -0.06320
C126 C 0.84446 0.52468 0.21722 -0.06320
H127 H 0.75947 0.52238 0.18526 0.10430
H128 H 0.83489 0.53257 0.26035 0.10430
C129 C 0.91773 0.50048 0.10015 -0.46910
H130 H 0.91688 0.53378 0.06999 0.13130
H131 H 0.90833 0.46123 0.07973 0.13130
H132 H 0.95868 0.49890 0.11900 0.13130
N133 N 0.48078 0.85181 0.10464 -0.32380
C134 C 0.50731 0.87682 0.14349 0.32120
N135 N 0.48217 0.91996 0.16112 -0.32380
C136 C 0.43783 0.92208 0.13152 -0.06320
C137 C 0.43680 0.88000 0.09687 -0.06320
H138 H 0.40866 0.95539 0.13777 0.10430
H139 H 0.40214 0.87448 0.06838 0.10430
C140 C 0.55913 0.85888 0.16350 -0.46910
H141 H 0.55525 0.84714 0.20665 0.13130
H142 H 0.58960 0.89233 0.15975 0.13130
H143 H 0.57239 0.82336 0.13950 0.13130
N144 N 0.09284 0.50198 0.15056 -0.32380
C145 C 0.14360 0.51133 0.13812 0.32120
N146 N 0.15558 0.49457 0.08921 -0.32380
C147 C 0.10999 0.47344 0.07034 -0.06320
C148 C 0.07124 0.47819 0.10798 -0.06320
H149 H 0.10854 0.45557 0.02906 0.10430
H150 H 0.02941 0.46288 0.09951 0.10430
C151 C 0.18194 0.53643 0.17516 -0.46910
H152 H 0.19650 0.57570 0.15821 0.13130
H153 H 0.21693 0.50921 0.18117 0.13130
H154 H 0.16187 0.54370 0.21458 0.13130
N155 N 0.92482 0.49591 0.86274 -0.32380
C156 C 0.87618 0.51022 0.87727 0.32120
N157 N 0.86111 0.48829 0.92326 -0.32380
C158 C 0.90238 0.45854 0.93798 -0.06320
C159 C 0.94176 0.46338 0.90087 -0.06320
H160 H 0.90044 0.43478 0.97605 0.10430
H161 H 0.98040 0.44137 0.90625 0.10430
C162 C 0.84289 0.54553 0.84508 -0.46910
H163 H 0.83512 0.58340 0.86804 0.13130
H164 H 0.80370 0.52469 0.83554 0.13130
H165 H 0.86426 0.55568 0.80689 0.13130
N166 N 0.48398 0.91618 0.85273 -0.32380
C167 C 0.50802 0.87445 0.87413 0.32120
N168 N 0.48655 0.85972 0.92043 -0.32380
C169 C 0.44730 0.89425 0.92842 -0.06320
C170 C 0.44550 0.92890 0.88664 -0.06320
H171 H 0.42213 0.89132 0.96547 0.10430
H172 H 0.41461 0.96123 0.88575 0.10430
C173 C 0.55385 0.84863 0.84937 -0.46910
H174 H 0.54273 0.80606 0.83868 0.13130
H175 H 0.58858 0.84890 0.87818 0.13130
H176 H 0.56551 0.87105 0.81218 0.13130
N177 N 0.19298 0.50030 0.88500 -0.32380
C178 C 0.14194 0.50783 0.87307 0.32120
N179 N 0.13261 0.50756 0.82073 -0.32380
C180 C 0.18038 0.49975 0.79893 -0.06320
C181 C 0.21756 0.49502 0.83847 -0.06320
H182 H 0.18447 0.49804 0.75425 0.10430
H183 H 0.26069 0.48789 0.82816 0.10430
C184 C 0.10108 0.51651 0.91367 -0.46910
H185 H 0.07064 0.48281 0.91211 0.13130
H186 H 0.08066 0.55559 0.90583 0.13130
H187 H 0.12050 0.51781 0.95429 0.13130
N188 N 0.53512 0.16254 0.91633 -0.32380
C189 C 0.51031 0.14034 0.87480 0.32120
N190 N 0.54016 0.10440 0.84996 -0.32380
C191 C 0.58604 0.10445 0.87726 -0.06320
C192 C 0.58291 0.14006 0.91830 -0.06320
H193 H 0.61940 0.07749 0.86462 0.10430
H194 H 0.61782 0.14580 0.94644 0.10430
C195 C 0.45632 0.15512 0.85811 -0.46910
H196 H 0.42857 0.11938 0.86187 0.13130
H197 H 0.45712 0.16881 0.81537 0.13130
H198 H 0.44174 0.18852 0.88426 0.13130
N199 N 0.53824 0.11697 0.17465 -0.32380
C200 C 0.51095 0.14273 0.13755 0.32120
N201 N 0.53778 0.18481 0.11821 -0.32380
C202 C 0.58404 0.18545 0.14486 -0.06320
C203 C 0.58449 0.14355 0.17947 -0.06320
H204 H 0.61496 0.21763 0.13664 0.10430
H205 H 0.62052 0.13691 0.20566 0.10430
C206 C 0.45679 0.12660 0.12100 -0.46910
H207 H 0.45702 0.11452 0.07769 0.13130
H208 H 0.42896 0.16114 0.12665 0.13130
H209 H 0.44274 0.09172 0.14590 0.13130
N210 N 0.82819 0.88900 0.51806 -0.32380
C211 C 0.87736 0.87545 0.50455 0.32120
N212 N 0.89201 0.82916 0.52592 -0.32380
C213 C 0.84988 0.81321 0.55444 -0.06320
C214 C 0.81045 0.84990 0.54945 -0.06320
H215 H 0.85129 0.77463 0.57749 0.10430
H216 H 0.77116 0.84349 0.57049 0.10430
C217 C 0.91158 0.90891 0.47062 -0.46910
H218 H 0.92066 0.88666 0.43268 0.13130
H219 H 0.95007 0.91873 0.49233 0.13130
H220 H 0.89032 0.94705 0.46072 0.13130
N221 N 0.83577 0.12144 0.48178 -0.32380
C222 C 0.87637 0.14453 0.50766 0.32120
N223 N 0.90302 0.17989 0.47782 -0.32380
C224 C 0.87789 0.17852 0.43084 -0.06320
C225 C 0.83631 0.14272 0.43329 -0.06320
H226 H 0.89241 0.20473 0.39725 0.10430
H227 H 0.80976 0.13593 0.39740 0.10430
C228 C 0.89035 0.13121 0.56274 -0.46910
H229 H 0.88551 0.16757 0.58881 0.13130
H230 H 0.93314 0.11781 0.56457 0.13130
H231 H 0.86316 0.09801 0.57724 0.13130
N232 N 0.13074 0.82637 0.49787 -0.32380
C233 C 0.14346 0.87745 0.50587 0.32120
N234 N 0.19611 0.88663 0.50575 -0.32380
C235 C 0.21728 0.83873 0.49755 -0.06320
C236 C 0.17707 0.80161 0.49245 -0.06320
H237 H 0.26205 0.83450 0.49587 0.10430
H238 H 0.18678 0.75838 0.48496 0.10430
C239 C 0.10333 0.91851 0.51485 -0.46910
H240 H 0.10508 0.94863 0.48154 0.13130
H241 H 0.11174 0.93928 0.55398 0.13130
H242 H 0.06231 0.89921 0.51590 0.13130
N243 N 0.09141 0.15221 0.51540 -0.32380
C244 C 0.14219 0.14027 0.50720 0.32120
N245 N 0.15398 0.09109 0.52333 -0.32380
C246 C 0.10824 0.07149 0.54284 -0.06320
C247 C 0.06960 0.10900 0.53777 -0.06320
H248 H 0.10662 0.02984 0.55987 0.10430
H249 H 0.02768 0.09995 0.55178 0.10430
C250 C 0.18073 0.17808 0.48387 -0.46910
H251 H 0.19546 0.16170 0.44481 0.13130
H252 H 0.21559 0.18408 0.51202 0.13130
H253 H 0.16079 0.21756 0.47681 0.13130
N254 N 0.42789 0.65393 0.99990 -0.32380
C255 C 0.37725 0.64073 0.00899 0.32120
N256 N 0.36419 0.59198 0.99112 -0.32380
C257 C 0.40895 0.57402 0.96923 -0.06320
C258 C 0.44829 0.61203 0.97464 -0.06320
H259 H 0.40938 0.53308 0.95035 0.10430
H260 H 0.48957 0.60431 0.95884 0.10430
C261 C 0.34008 0.67690 0.03525 -0.46910
H262 H 0.32645 0.65874 0.07403 0.13130
H263 H 0.30437 0.68331 0.00857 0.13130
H264 H 0.36083 0.71645 0.04336 0.13130
N265 N 0.38843 0.32666 0.99797 -0.32380
C266 C 0.37608 0.37707 0.00793 0.32120
N267 N 0.32767 0.38956 0.98982 -0.32380
C268 C 0.30903 0.34468 0.96715 -0.06320
C269 C 0.34631 0.30583 0.97235 -0.06320
H270 H 0.26820 0.34379 0.94790 0.10430
H271 H 0.33794 0.26453 0.95591 0.10430
C272 C 0.41275 0.41458 0.03502 -0.46910
H273 H 0.39458 0.42773 0.07383 0.13130
H274 H 0.41998 0.45053 0.00890 0.13130
H275 H 0.45188 0.39432 0.04319 0.13130
loop_
_geom_bond_atom_site_label_1
_geom_bond_atom_site_label_2
_geom_bond_distance
_geom_bond_site_symmetry_2
_ccdc_geom_bond_type
N12 C13 1.341 . A
N12 C16 1.345 . A
C13 N14 1.348 . A
C13 C19 1.482 1_455 S
N14 C15 1.348 . A
C15 C16 1.379 . A
C15 H17 1.140 . S
C16 H18 1.140 . S
C19 H20 1.140 . S
C19 H21 1.140 . S
C19 H22 1.140 . S
N23 C24 1.341 1_565 A
N23 C27 1.345 . A
C24 N25 1.348 1_545 A
C24 C30 1.482 . S
N25 C26 1.348 . A
C26 C27 1.379 . A
C26 H28 1.140 . S
C27 H29 1.140 . S
C30 H31 1.140 . S
C30 H32 1.140 . S
C30 H33 1.140 . S
N34 C35 1.341 1_655 A
N34 C38 1.345 . A
C35 N36 1.348 1_455 A
C35 C41 1.482 . S
N36 C37 1.348 . A
C37 C38 1.379 . A
C37 H39 1.140 . S
C38 H40 1.140 . S
C41 H42 1.140 . S
C41 H43 1.140 . S
C41 H44 1.140 . S
N45 C46 1.341 1_565 A
N45 C49 1.345 . A
C46 N47 1.348 1_545 A
C46 C52 1.482 . S
N47 C48 1.348 . A
C48 C49 1.379 . A
C48 H50 1.140 . S
C49 H51 1.140 . S
C52 H53 1.140 . S
C52 H54 1.140 . S
C52 H55 1.140 . S
N56 C57 1.341 . A
N56 C60 1.345 1_455 A
C57 N58 1.352 . A
C57 C63 1.482 . S
N58 C59 1.345 1_455 A
C59 C60 1.379 . A
C59 H61 1.140 . S
C60 H62 1.140 . S
C63 H64 1.140 . S
C63 H65 1.140 1_455 S
C63 H66 1.140 . S
N67 C68 1.341 1_556 A
N67 C71 1.345 . A
C68 N69 1.348 1_554 A
C68 C74 1.482 . S
N69 C70 1.348 . A
C70 C71 1.379 . A
C70 H72 1.140 . S
C71 H73 1.140 . S
C74 H75 1.140 . S
C74 H76 1.140 . S
C74 H77 1.140 . S
N78 C79 1.341 1_556 A
N78 C82 1.345 . A
C79 N80 1.348 1_554 A
C79 C85 1.482 . S
N80 C81 1.348 . A
C81 C82 1.379 . A
C81 H83 1.140 . S
C82 H84 1.140 . S
C85 H86 1.140 . S
C85 H87 1.140 . S
C85 H88 1.140 . S
N89 C90 1.341 . A
N89 C93 1.345 . A
C90 N91 1.348 . A
C90 C96 1.482 . S
N91 C92 1.348 . A
C92 C93 1.379 . A
C92 H94 1.140 . S
C93 H95 1.140 . S
C96 H97 1.140 1_545 S
C96 H98 1.140 . S
C96 H99 1.140 1_545 S
N100 C101 1.341 . A
N100 C104 1.345 . A
C101 N102 1.348 . A
C101 C107 1.482 1_455 S
N102 C103 1.348 . A
C103 C104 1.379 . A
C103 H105 1.140 . S
C104 H106 1.140 . S
C107 H108 1.140 . S
C107 H109 1.140 . S
C107 H110 1.140 . S
N111 C112 1.341 . A
N111 C115 1.345 . A
C112 N113 1.348 . A
C112 C118 1.482 . S
N113 C114 1.348 . A
C114 C115 1.379 . A
C114 H116 1.140 . S
C115 H117 1.140 . S
C118 H119 1.140 1_545 S
C118 H120 1.140 . S
C118 H121 1.140 . S
N122 C123 1.341 . A
N122 C126 1.345 . A
C123 N124 1.348 . A
C123 C129 1.482 . S
N124 C125 1.348 . A
C125 C126 1.379 . A
C125 H127 1.140 . S
C126 H128 1.140 . S
C129 H130 1.140 . S
C129 H131 1.140 . S
C129 H132 1.140 . S
N133 C134 1.341 . A
N133 C137 1.345 . A
C134 N135 1.348 . A
C134 C140 1.482 . S
N135 C136 1.348 . A
C136 C137 1.379 . A
C136 H138 1.140 . S
C137 H139 1.140 . S
C140 H141 1.140 . S
C140 H142 1.140 . S
C140 H143 1.140 . S
N144 C145 1.341 . A
N144 C148 1.345 . A
C145 N146 1.348 . A
C145 C151 1.482 . S
N146 C147 1.348 . A
C147 C148 1.379 . A
C147 H149 1.140 . S
C148 H150 1.140 . S
C151 H152 1.140 . S
C151 H153 1.140 . S
C151 H154 1.140 . S
N155 C156 1.341 . A
N155 C159 1.345 . A
C156 N157 1.348 . A
C156 C162 1.482 . S
N157 C158 1.348 . A
C158 C159 1.379 . A
C158 H160 1.140 . S
C159 H161 1.140 . S
C162 H163 1.140 . S
C162 H164 1.140 . S
C162 H165 1.140 . S
N166 C167 1.341 . A
N166 C170 1.345 . A
C167 N168 1.348 . A
C167 C173 1.482 . S
N168 C169 1.348 . A
C169 C170 1.379 . A
C169 H171 1.140 . S
C170 H172 1.140 . S
C173 H174 1.140 . S
C173 H175 1.140 . S
C173 H176 1.140 . S
N177 C178 1.341 . A
N177 C181 1.345 . A
C178 N179 1.348 . A
C178 C184 1.482 . S
N179 C180 1.348 . A
C180 C181 1.379 . A
C180 H182 1.140 . S
C181 H183 1.140 . S
C184 H185 1.140 . S
C184 H186 1.140 . S
C184 H187 1.140 . S
N188 C189 1.341 . A
N188 C192 1.345 . A
C189 N190 1.348 . A
C189 C195 1.482 . S
N190 C191 1.348 . A
C191 C192 1.379 . A
C191 H193 1.140 . S
C192 H194 1.140 . S
C195 H196 1.140 . S
C195 H197 1.140 . S
C195 H198 1.140 . S
N199 C200 1.341 . A
N199 C203 1.345 . A
C200 N201 1.348 . A
C200 C206 1.482 . S
N201 C202 1.348 . A
C202 C203 1.379 . A
C202 H204 1.140 . S
C203 H205 1.140 . S
C206 H207 1.140 . S
C206 H208 1.140 . S
C206 H209 1.140 . S
N210 C211 1.341 . A
N210 C214 1.345 . A
C211 N212 1.348 . A
C211 C217 1.482 . S
N212 C213 1.348 . A
C213 C214 1.379 . A
C213 H215 1.140 . S
C214 H216 1.140 . S
C217 H218 1.140 . S
C217 H219 1.140 . S
C217 H220 1.140 . S
N221 C222 1.341 . A
N221 C225 1.345 . A
C222 N223 1.348 . A
C222 C228 1.482 . S
N223 C224 1.348 . A
C224 C225 1.379 . A
C224 H226 1.140 . S
C225 H227 1.140 . S
C228 H229 1.140 . S
C228 H230 1.140 . S
C228 H231 1.140 . S
N232 C233 1.341 . A
N232 C236 1.345 . A
C233 N234 1.348 . A
C233 C239 1.482 . S
N234 C235 1.348 . A
C235 C236 1.379 . A
C235 H237 1.140 . S
C236 H238 1.140 . S
C239 H240 1.140 . S
C239 H241 1.140 . S
C239 H242 1.140 . S
N243 C244 1.341 . A
N243 C247 1.345 . A
C244 N245 1.348 . A
C244 C250 1.482 . S
N245 C246 1.348 . A
C246 C247 1.379 . A
C246 H248 1.140 . S
C247 H249 1.140 . S
C250 H251 1.140 . S
C250 H252 1.140 . S
C250 H253 1.140 . S
N254 C255 1.340 1_556 A
N254 C258 1.348 . A
C255 N256 1.348 1_554 A
C255 C261 1.482 . S
N256 C257 1.348 . A
C257 C258 1.379 . A
C257 H259 1.140 . S
C258 H260 1.140 . S
C261 H262 1.140 . S
C261 H263 1.140 . S
C261 H264 1.140 . S
N265 C266 1.341 1_556 A
N265 C269 1.345 . A
C266 N267 1.348 1_554 A
C266 C272 1.482 . S
N267 C268 1.348 . A
C268 C269 1.379 . A
C268 H270 1.140 . S
C269 H271 1.140 . S
C272 H273 1.140 . S
C272 H274 1.140 . S
C272 H275 1.140 . S
N14 Zn0 3.503 . S
N12 Zn8 3.489 . S
N25 Zn1 3.394 1_565 S
N23 Zn7 3.385 1_565 S
N36 Zn6 3.419 1_655 S
N34 Zn2 3.437 1_655 S
N47 Zn1 3.537 1_565 S
N45 Zn5 3.526 1_565 S
N58 Zn8 3.534 . S
N56 Zn2 3.522 . S
N69 Zn9 3.479 1_556 S
N67 Zn3 3.480 1_556 S
N80 Zn3 3.494 1_556 S
N78 Zn11 3.490 1_556 S
N91 Zn5 3.394 . S
N89 Zn4 3.398 . S
N102 Zn0 3.441 . S
N100 Zn6 3.465 . S
N113 Zn7 3.529 . S
N111 Zn4 3.510 . S
N124 Zn3 3.532 . S
N122 Zn2 3.516 1_655 S
N135 Zn1 3.434 1_565 S
N133 Zn9 3.464 . S
N146 Zn10 3.397 . S
N144 Zn2 3.412 . S
N157 Zn3 3.414 1_556 S
N155 Zn0 3.431 1_655 S
N168 Zn9 3.433 1_556 S
N166 Zn4 3.434 1_565 S
N179 Zn0 3.508 . S
N177 Zn10 3.508 1_556 S
N190 Zn4 3.415 . S
N188 Zn11 3.431 1_556 S
N201 Zn11 3.491 . S
N199 Zn1 3.479 . S
N212 Zn6 3.494 1_655 S
N210 Zn7 3.506 1_565 S
N223 Zn8 3.459 1_655 S
N221 Zn7 3.486 . S
N234 Zn5 3.505 1_565 S
N232 Zn6 3.507 . S
N245 Zn5 3.422 . S
N243 Zn8 3.431 . S
N256 Zn10 3.385 1_556 S
N254 Zn9 3.388 1_556 S
N267 Zn10 3.500 1_556 S
N265 Zn11 3.510 1_556 S
