#------------------------------------------------------------------------------#
# simulation settings
#------------------------------------------------------------------------------#

##### simulation variables

variable        seed 	equal  20902
variable        T       equal  300	    #K
variable        p       equal  0.0 	#bar
variable        damp_T  equal  100 		  	#K
variable        damp_P  equal  1000.0	  	#bar
variable        dT      equal  1.0 		 	#fs
variable        kb      equal  0.0019872041

## system setup ##

units           real
atom_style      full
boundary        p p p

pair_style      zero 12.5 nocoeff
bond_style      harmonic
angle_style     hybrid cosine/periodic fourier
dihedral_style  harmonic
improper_style  fourier

pair_modify 	tail yes mix arithmetic
special_bonds 	lj/coul 0.0 0.0 1.0

read_data 	 	../data.emin_sod-4c_Zn-2c_mim_fe
Reading data file ...
  triclinic box = (4.5054746 4.3760097 4.4164229) to (20.786525 20.913779 20.965143) with tilt (-0.95270579 -0.51398262 -1.0127119)
  reading atoms ...
  276 atoms
  reading velocities ...
  276 velocities
  scanning bonds ...
  scanning angles ...
  scanning dihedrals ...
  scanning impropers ...
  reading bonds ...
  312 bonds
  reading angles ...
  576 angles
  reading dihedrals ...
  624 dihedrals
  reading impropers ...
  360 impropers
Finding 1-2 1-3 1-4 neighbors ...
     4 = max # of 1-2 neighbors
     8 = max # of 1-3 neighbors
    12 = max # of special neighbors
include 	 	../bonded_sod-4c_Zn-2c_mim.param
### Parameters for Equilibration ###

### Parameters for MOF ###

mass 1 65.380000000
mass 2 14.006700000
mass 3 12.010700000
mass 4 1.007940000
mass 5 12.010700000

variable b1 equal 1e-08*165.837318
bond_coeff 1 1.65837318e-06 1.881712
variable b2 equal 1e-08*663.718927
bond_coeff 2 6.63718927e-06 1.345073
variable b3 equal 1e-08*369.943935
bond_coeff 3 3.69943935e-06 1.486000
variable b4 equal 1e-08*462.655054
bond_coeff 4 4.62655054e-06 1.379256
variable b5 equal 1e-08*357.440381
bond_coeff 5 3.57440381e-06 1.081418
variable b6 equal 1e-08*331.069389
bond_coeff 6 3.31069389e-06 1.109401

variable a1 equal 1e-08*197.524216
angle_coeff 1 fourier 1.97524216e-06 0.343737 0.374972 0.281246
variable a2 equal 1e-08*45.889625
angle_coeff 2 cosine/periodic 4.5889625e-07 -1 3
variable a3 equal 1e-08*120.000516
angle_coeff 3 cosine/periodic 1.20000516e-06 -1 3
variable a4 equal 1e-08*212.442573
angle_coeff 4 cosine/periodic 2.12442573e-06 -1 3
variable a5 equal 1e-08*136.548728
angle_coeff 5 cosine/periodic 1.36548728e-06 -1 3
variable a6 equal 1e-08*153.699352
angle_coeff 6 cosine/periodic 1.53699352e-06 -1 3
variable a7 equal 1e-08*79.786967
angle_coeff 7 cosine/periodic 7.9786967e-07 -1 3
variable a8 equal 1e-08*57.289016
angle_coeff 8 cosine/periodic 5.7289016e-07 -1 3
variable a9 equal 1e-08*121.777217
angle_coeff 9 fourier 1.21777217e-06 0.343737 0.374972 0.281246
variable a10 equal 1e-08*75.498766
angle_coeff 10 fourier 7.5498766e-07 0.343737 0.374972 0.281246

variable d1 equal 1e-08*3.368555
dihedral_coeff 1 3.368555e-08 -1 2
variable d2 equal 1e-08*0.166667
dihedral_coeff 2 1.66667e-09 1 3

variable i1 equal 1e-08*2.000000
improper_coeff 1 2e-08 1.000000 -1.000000 0.000000 0

pair_coeff * *

group			fram type < 6
276 atoms in group fram

fix				SPRING fram spring/self 10 	# harmonic restraint to framework

#------------------------------------------------------------------------------#
# equilibration
#------------------------------------------------------------------------------#

reset_timestep	0

thermo_style	custom step etotal ke pe temp press density vol ebond eangle edihed eimp emol
thermo 			5000

velocity 		all create 300 20902

fix				f1 all nve
fix 			f2 all langevin 300 300 100 20902 zero yes
compute 		c1 all temp/com
fix_modify		f2 temp c1

run				200000
Generated 0 of 10 mixed pair_coeff terms from arithmetic mixing rule
  update every 1 steps, delay 10 steps, check yes
Step         TotEng         KinEng         PotEng          Temp          Press         Density         Volume         E_bond        E_angle        E_dihed        E_impro         E_mol
0   245.91684      245.91683      1.0933332e-05  300            2522.8842      1.0177122      4455.7805      7.3886194e-08  9.8503634e-06  9.2943137e-07  7.9650956e-08  1.0933332e-05
Averages over the last 21 of 41 rows, steps 100000 to 200000:
TotEng KinEng PotEng Temp Press Density Volume E_bond E_angle E_dihed E_impro E_mol
248.501 248.501 0.000225235 303.152 2549.39 1.01771 4455.78 0.000155336 6.00093e-05 8.41133e-06 1.47794e-06 0.000225235
Loop time of 12.8543 on 4 procs for 200000 steps with 276 atoms

#------------------------------------------------------------------------------#
# sampling
#------------------------------------------------------------------------------#

reset_timestep	0

compute 		MOF_pe_a fram pe/atom bond angle dihedral improper	# per atom quantity
compute			MOF_pe all reduce sum c_MOF_pe_a	# reduce to bulk quantity

variable 		dudlam	equal c_MOF_pe/1e-08

fix				BOND all ave/time 250 1 250 v_dudlam file bond_1e-08.lmp

thermo_style	custom step etotal ke pe temp press density vol c_MOF_pe v_dudlam
thermo 			250

run 			500000
Generated 0 of 10 mixed pair_coeff terms from arithmetic mixing rule
Step         TotEng         KinEng         PotEng          Temp          Press         Density         Volume        c_MOF_pe       v_dudlam
0   223.80179      223.80156      0.0002378552   273.02103      2295.9982      1.0177122      4455.7805      0.0002378552   23785.52
Averages over the last 1001 of 2001 rows, steps 250000 to 500000:
TotEng KinEng PotEng Temp Press Density Volume c_MOF_pe v_dudlam
250.148 250.148 0.000230757 305.162 2566.29 1.01771 4455.78 0.000230757 23075.7
Loop time of 33.517 on 4 procs for 500000 steps with 276 atoms

unfix 			f1
unfix 			f2
