#------------------------------------------------------------------------------#
# simulation settings
#------------------------------------------------------------------------------#

##### simulation variables

variable        seed 	equal  77229
variable        T       equal  300	    #K
variable        p       equal  0.0 	#bar
variable        damp_T  equal  100 		  	#K
variable        damp_P  equal  1000.0	  	#bar
variable        dT      equal  1.0 		 	#fs
variable        kb      equal  0.0019872041

## system setup ##

units           real
atom_style      full
boundary        p p p

pair_style      zero 12.5 nocoeff
bond_style      harmonic
angle_style     hybrid fourier cosine/periodic
dihedral_style  harmonic
improper_style  fourier

pair_modify 	tail yes mix arithmetic
special_bonds 	lj/coul 0.0 0.0 1.0

read_data 	 	../data.emin_pto-4c_In-3c_BTB_DMA_fe
Reading data file ...
  triclinic box = (1.0127974 1.2506642 1.0737052) to (27.573203 27.546212 27.449243) with tilt (-0.4871608 -0.79355401 -0.31961632)
  reading atoms ...
  456 atoms
  reading velocities ...
  456 velocities
  scanning bonds ...
  scanning angles ...
  scanning dihedrals ...
  scanning impropers ...
  reading bonds ...
  516 bonds
  reading angles ...
  972 angles
  reading dihedrals ...
  1164 dihedrals
  reading impropers ...
  648 impropers
Finding 1-2 1-3 1-4 neighbors ...
     8 = max # of 1-2 neighbors
     9 = max # of 1-3 neighbors
    12 = max # of special neighbors
include 	 	../bonded_pto-4c_In-3c_BTB.param
### Parameters for Equilibration ###

### Parameters for MOF ###

mass 1 12.010700000
mass 2 1.007940000
mass 3 114.818000000
mass 4 15.999400000

variable b1 equal 1e-08*462.655054
bond_coeff 1 4.62655054e-06 1.379256
variable b2 equal 1e-08*391.669513
bond_coeff 2 3.91669513e-06 1.458000
variable b3 equal 1e-08*357.440381
bond_coeff 3 3.57440381e-06 1.081418
variable b4 equal 1e-08*187.991596
bond_coeff 4 1.87991596e-06 2.033568
variable b5 equal 1e-08*646.680887
bond_coeff 5 6.46680887e-06 1.311940

variable a1 equal 1e-08*111.297508
angle_coeff 1 cosine/periodic 1.11297508e-06 -1 3
variable a2 equal 1e-08*102.183280
angle_coeff 2 cosine/periodic 1.0218328e-06 -1 3
variable a3 equal 1e-08*57.289016
angle_coeff 3 cosine/periodic 5.7289016e-07 -1 3
variable a4 equal 1e-08*127.915933
angle_coeff 4 fourier 1.27915933e-06 0.343737 0.374972 0.281246
variable a5 equal 1e-08*77.909182
angle_coeff 5 cosine/periodic 7.7909182e-07 -1 3
variable a6 equal 1e-08*131.755710
angle_coeff 6 cosine/periodic 1.3175571e-06 -1 3
variable a7 equal 1e-08*187.136328
angle_coeff 7 cosine/periodic 1.87136328e-06 -1 3

variable d1 equal 1e-08*3.368555
dihedral_coeff 1 3.368555e-08 -1 2
variable d2 equal 1e-08*1.250000
dihedral_coeff 2 1.25e-08 -1 2
variable d3 equal 1e-08*6.737110
dihedral_coeff 3 6.73711e-08 -1 2

variable i1 equal 1e-08*2.000000
improper_coeff 1 2e-08 1.000000 -1.000000 0.000000 0

### Parameters for Molecule ###

mass 5 12.010700000
mass 6 1.007940000
mass 7 14.006700000

bond_coeff 6 331.069389 1.109401
bond_coeff 7 528.634538 1.451071
bond_coeff 8 527.945261 1.044419

angle_coeff 8 fourier 75.498766 0.343737 0.374972 0.281246
angle_coeff 9 fourier 169.780468 0.343737 0.374972 0.281246
angle_coeff 10 fourier 260.869388 0.317506 0.313225 0.272502
angle_coeff 11 fourier 144.695053 0.317506 0.313225 0.272502
angle_coeff 12 fourier 97.017167 0.317506 0.313225 0.272502

dihedral_coeff 4 0.054250 1 3

pair_coeff * *

group			fram type < 5
390 atoms in group fram

fix				SPRING fram spring/self 10 	# harmonic restraint to framework

group			cation type > 4
66 atoms in group cation
group			center type 7
6 atoms in group center
fix			SPRING2 center spring/self 1

#------------------------------------------------------------------------------#
# equilibration
#------------------------------------------------------------------------------#

reset_timestep	0

thermo_style	custom step etotal ke pe temp press density vol ebond eangle edihed eimp emol
thermo 			5000

velocity 		all create 300 77229

fix				f1 all nve
fix 			f2 all langevin 300 300 100 77229 zero yes
compute 		c1 all temp/com
fix_modify		f2 temp c1

run				200000
Generated 0 of 21 mixed pair_coeff terms from arithmetic mixing rule
  update every 1 steps, delay 10 steps, check yes
Step         TotEng         KinEng         PotEng          Temp          Press         Density         Volume         E_bond        E_angle        E_dihed        E_impro         E_mol
0   422.00245      406.88057      15.121875      300            263.74001      0.40101743     18421.214      3.1675723      11.930275      0.024028264    1.6186922e-08  15.121875
Averages over the last 21 of 41 rows, steps 100000 to 200000:
TotEng KinEng PotEng Temp Press Density Volume E_bond E_angle E_dihed E_impro E_mol
462.572 405.193 57.3797 298.756 926.986 0.401017 18421.2 19.9999 33.4623 3.9175 2.64522e-06 57.3797
Loop time of 9.73996 on 4 procs for 200000 steps with 456 atoms

#------------------------------------------------------------------------------#
# sampling
#------------------------------------------------------------------------------#

reset_timestep	0

compute 		MOF_pe_a fram pe/atom bond angle dihedral improper	# per atom quantity
compute			MOF_pe all reduce sum c_MOF_pe_a	# reduce to bulk quantity

variable 		dudlam	equal c_MOF_pe/1e-08

fix				BOND all ave/time 250 1 250 v_dudlam file bond_1e-08.lmp

thermo_style	custom step etotal ke pe temp press density vol c_MOF_pe v_dudlam
thermo 			250

run 			500000
Generated 0 of 21 mixed pair_coeff terms from arithmetic mixing rule
Step         TotEng         KinEng         PotEng          Temp          Press         Density         Volume        c_MOF_pe       v_dudlam
0   480.56084      426.70196      53.858879      314.61465      738.74202      0.40101743     18421.214      0.00035369689  35369.689
Averages over the last 1001 of 2001 rows, steps 250000 to 500000:
TotEng KinEng PotEng Temp Press Density Volume c_MOF_pe v_dudlam
467.913 410.996 56.9175 303.034 874.158 0.401017 18421.2 0.000362228 36222.8
Loop time of 24.4261 on 4 procs for 500000 steps with 456 atoms

unfix 			f1
unfix 			f2
