data_image0
_chemical_formula_structural       FeS2FeS2FeSFeS3FeS2FeS2FeSFeS3FeS2FeS2FeSFeS3FeS2FeS2FeSFeS3FeS2FeS2FeSFeS3C6H4C6H4C6H4C6H4C6H4C6H4C6H4C6H4C6H4C6H4NC4H12NC4H12NC4H12NC4H12NC4H12NC4H12NC4H12NC4H12NC4H12NC4H12
_chemical_formula_sum              "Fe20 S40 C100 H160 N10"
_cell_length_a       26.621967679168126
_cell_length_b       28.636443907461643
_cell_length_c       27.024281376384444
_cell_angle_alpha    88.58521475184979
_cell_angle_beta     85.6792173283255
_cell_angle_gamma    100.5239137661763

_space_group_name_H-M_alt    "P 1"
_space_group_IT_number       1

loop_
  _space_group_symop_operation_xyz
  'x, y, z'

loop_
  _atom_site_type_symbol
  _atom_site_label
  _atom_site_symmetry_multiplicity
  _atom_site_fract_x
  _atom_site_fract_y
  _atom_site_fract_z
  _atom_site_occupancy
  Fe  Fe1       1.0  0.9671818514270442  0.201675494162564  0.8522592590120027  1.0000
  S   S1        1.0  0.9282060629098782  0.26496824445857475  0.8593168013763238  1.0000
  S   S2        1.0  0.940294975014379  0.1528491035207075  0.790723683120371  1.0000
  Fe  Fe2       1.0  0.019370602851982614  0.22146004086638643  0.9477784951520394  1.0000
  S   S3        1.0  0.9834546669684172  0.2854669846818095  0.9625363902027892  1.0000
  S   S4        1.0  0.0670706878642553  0.20491661804060923  0.009735672658386818  1.0000
  Fe  Fe3       1.0  0.911746106167085  0.2409248895367556  0.9393231392920552  1.0000
  S   S5        1.0  0.835944393028518  0.24717866993515689  0.978495039839389  1.0000
  Fe  Fe4       1.0  0.0028832806408549644  0.3049799221409834  0.8818655429566717  1.0000
  S   S6        1.0  0.03809387017198587  0.3808853678746267  0.8544052379870942  1.0000
  S   S7        1.0  0.9452353259744911  0.17501905979793997  0.9315907181035428  1.0000
  S   S8        1.0  0.044443351917914195  0.24362049830260996  0.8677933382014137  1.0000
  Fe  Fe5       1.0  0.9420013639922697  0.7023312560673136  0.8526432581183934  1.0000
  S   S9        1.0  0.9071644721469035  0.6608121277271578  0.92241343673734  1.0000
  S   S10       1.0  0.8973151242627045  0.6882482659050603  0.7852781965659571  1.0000
  Fe  Fe6       1.0  0.036589464120383754  0.7453242661857523  0.9010621955869966  1.0000
  S   S11       1.0  0.01056381966674591  0.7056969065540533  0.9738757164736055  1.0000
  S   S12       1.0  0.10506859785035218  0.8046796121157431  0.8892633228343599  1.0000
  Fe  Fe7       1.0  0.9850597548455442  0.6422889721160303  0.9278690359493025  1.0000
  S   S13       1.0  0.982674253578566  0.5658850782425776  0.9559845201246633  1.0000
  Fe  Fe8       1.0  0.9351936220148116  0.7269265696559111  0.9623750515149374  1.0000
  S   S14       1.0  0.8912143932075308  0.7491845452585821  0.030063920574745273  1.0000
  S   S15       1.0  0.018520597702248634  0.6803262232525706  0.8555269162451423  1.0000
  S   S16       1.0  0.9624185387449936  0.770270157891389  0.8920961280745012  1.0000
  Fe  Fe9       1.0  0.02534107379144368  0.9847592321801045  0.5941847697679804  1.0000
  S   S17       1.0  0.042842769963940305  0.9117388227638442  0.5816610201613168  1.0000
  S   S18       1.0  0.06387680027339027  0.028830520106551745  0.6540870252422725  1.0000
  Fe  Fe10      1.0  0.9582315563384011  0.9808298797757944  0.5069460269309366  1.0000
  S   S19       1.0  0.9696677242208356  0.907616066908049  0.4885802580206059  1.0000
  S   S20       1.0  0.9087869121508253  0.022862326816110334  0.46590464766144357  1.0000
  Fe  Fe11      1.0  0.9591169275031132  0.8916810094084572  0.5709417612140221  1.0000
  S   S21       1.0  0.9027899080594664  0.8250094586220108  0.5956497307032197  1.0000
  Fe  Fe12      1.0  0.052128015989008736  0.9343642175071648  0.5004502232477527  1.0000
  S   S22       1.0  0.11381046063848933  0.9143260201577054  0.44734979851995893  1.0000
  S   S23       1.0  0.9405859133774835  0.9630091939325105  0.5887766160116644  1.0000
  S   S24       1.0  0.04176420026746519  0.00915820126620374  0.5137988945642291  1.0000
  Fe  Fe13      1.0  0.7508163175379103  0.04699679848017668  0.171669357041503  1.0000
  S   S25       1.0  0.7260093729006789  0.009518181198661546  0.10367747131580007  1.0000
  S   S26       1.0  0.7530557406327344  0.12525786744654147  0.17516304329277696  1.0000
  Fe  Fe14      1.0  0.761797851769364  0.9575023354980792  0.22708262010368319  1.0000
  S   S27       1.0  0.7357619146549792  0.9117872317915664  0.16364046803528937  1.0000
  S   S28       1.0  0.7895952032263029  0.9205947045189856  0.29206914901872133  1.0000
  Fe  Fe15      1.0  0.7880119577124324  0.9679770716482178  0.11569373392106672  1.0000
  S   S29       1.0  0.8398562452331727  0.9557352622107061  0.04903007230873216  1.0000
  Fe  Fe16      1.0  0.6753311394072253  0.9570728405330837  0.15699517558165124  1.0000
  S   S30       1.0  0.5968688423656704  0.9267329774866896  0.13121217676586783  1.0000
  S   S31       1.0  0.8179703457557306  0.010931964989034482  0.17891953297360136  1.0000
  S   S32       1.0  0.6961596841817485  0.997309824574758  0.22515551978429912  1.0000
  Fe  Fe17      1.0  0.239129336107693  0.021316989299286614  0.06403110021363975  1.0000
  S   S33       1.0  0.17628127563720672  0.9684463019799623  0.10456275619308444  1.0000
  S   S34       1.0  0.21932935883034502  0.05794869490234382  0.9946978062674773  1.0000
  Fe  Fe18      1.0  0.3203208815543926  0.9999381208287585  0.1330739444468259  1.0000
  S   S35       1.0  0.2625123463626998  0.9452619333020263  0.17874429388620747  1.0000
  S   S36       1.0  0.40024409403785627  0.025408638199671606  0.15947369829169478  1.0000
  Fe  Fe19      1.0  0.23495159368841198  0.921605987544242  0.10503583626572185  1.0000
  S   S37       1.0  0.21098742169908294  0.8441813339646906  0.08983376233668304  1.0000
  Fe  Fe20      1.0  0.2089990466271564  0.9970846162844944  0.1740103022423601  1.0000
  S   S38       1.0  0.15690428922313132  0.019889081824371522  0.23513937582578176  1.0000
  S   S39       1.0  0.2965249722478596  0.9721179276341219  0.05938523374337618  1.0000
  S   S40       1.0  0.26812374362963565  0.05400708437103071  0.1335017714194582  1.0000
  C   C1        1.0  0.5418899898596514  0.953500696192895  0.14100663722600013  1.0000
  C   C2        1.0  0.5416876435731885  0.9925064651623092  0.1711509485776509  1.0000
  C   C3        1.0  0.4979136242779718  0.013850935336073162  0.1765853557677936  1.0000
  C   C4        1.0  0.45368491861140836  0.9961958324943173  0.15243305900760193  1.0000
  C   C5        1.0  0.45366747941798086  0.9567902569788806  0.12286191010846888  1.0000
  C   C6        1.0  0.4975731655089115  0.9356546119100491  0.11715702276268744  1.0000
  H   H1        1.0  0.5752184297528785  0.006138108603504006  0.19032141456995855  1.0000
  H   H2        1.0  0.49822205674550785  0.04411310449191907  0.1998062681683808  1.0000
  H   H3        1.0  0.4199441602863961  0.9427782013242046  0.10407620325931513  1.0000
  H   H4        1.0  0.4971350188726603  0.9053525224265349  0.09395978988128444  1.0000
  C   C7        1.0  0.8806017681652873  0.9980400682347201  0.4128098169800452  1.0000
  C   C8        1.0  0.8942594252653149  0.9573070461386227  0.3923282190411734  1.0000
  C   C9        1.0  0.8675312260082574  0.9350229266230506  0.3537746374554833  1.0000
  C   C10       1.0  0.827793757338416  0.9539661376188197  0.3343240980560439  1.0000
  C   C11       1.0  0.8157980401723904  0.9961106610016259  0.352989760835414  1.0000
  C   C12       1.0  0.8419365451986844  0.017890851657265783  0.3923216868524142  1.0000
  H   H5        1.0  0.9251471829778849  0.9426428999322707  0.4063974480748769  1.0000
  H   H6        1.0  0.8773277359501095  0.9026677605132574  0.3392733626286252  1.0000
  H   H7        1.0  0.7849935051185062  0.01085997224215185  0.3384963306890194  1.0000
  H   H8        1.0  0.831282038589425  0.04958637187623616  0.40762408789804855  1.0000
  C   C13       1.0  0.1224601581430862  0.9417856284255105  0.3873658084395409  1.0000
  C   C14       1.0  0.1029395336881037  0.9828753616399294  0.3775097795433285  1.0000
  C   C15       1.0  0.1130959301436636  0.005980267716071472  0.3303705394396348  1.0000
  C   C16       1.0  0.14223299409209464  0.9878838396997465  0.2925703154995174  1.0000
  C   C17       1.0  0.16039987645099518  0.9459400845405134  0.30182854280224986  1.0000
  C   C18       1.0  0.1509494349830996  0.9232102534281061  0.3492986536428279  1.0000
  H   H9        1.0  0.08068847499778796  0.9973169350692657  0.40641325491765473  1.0000
  H   H10       1.0  0.09854972282838273  0.03820249316323432  0.32328559536165047  1.0000
  H   H11       1.0  0.18206806099063208  0.931257059451504  0.27261992873456004  1.0000
  H   H12       1.0  0.16566437171564946  0.8911214221402908  0.35659230233160566  1.0000
  C   C19       1.0  0.8791458701228774  0.8073785967460981  0.03484959884367722  1.0000
  C   C20       1.0  0.8572251129597036  0.8205745340485179  0.08000846027044245  1.0000
  C   C21       1.0  0.8461470872277264  0.8664094515161941  0.08506038299701997  1.0000
  C   C22       1.0  0.8564350641999879  0.8991536989365357  0.04475723759408988  1.0000
  C   C23       1.0  0.8793734096503205  0.8863699534200247  0.9999023461091701  1.0000
  C   C24       1.0  0.8907630315808673  0.8405692396242247  0.9949286555631408  1.0000
  H   H13       1.0  0.8485128384252488  0.7951275681839624  0.1111698713734348  1.0000
  H   H14       1.0  0.8293119615721677  0.8762029950966667  0.12007212419398149  1.0000
  H   H15       1.0  0.8876124885664919  0.9116868720447061  0.968628328690652  1.0000
  H   H16       1.0  0.90772903918799  0.8307534784604921  0.9600191826786914  1.0000
  C   C25       1.0  0.13749303191406767  0.8153070985914564  0.9434252694389177  1.0000
  C   C26       1.0  0.13914025019329118  0.7779425949000652  0.9772095339841649  1.0000
  C   C27       1.0  0.16296349355421458  0.7870089069829566  0.021476587433296723  1.0000
  C   C28       1.0  0.1849317556918842  0.8335022508592872  0.032370657309707423  1.0000
  C   C29       1.0  0.18363622278538902  0.870916580557863  0.99844463763387  1.0000
  C   C30       1.0  0.16038736554108898  0.861743092859088  0.9537907583772348  1.0000
  H   H17       1.0  0.12252393727671017  0.7419118093482082  0.9690314828177804  1.0000
  H   H18       1.0  0.16406757594671564  0.7579557471820024  0.04751055131060046  1.0000
  H   H19       1.0  0.20061206942587964  0.9069273203151712  0.006560491927352308  1.0000
  H   H20       1.0  0.15944087746956034  0.8908202232792278  0.9277687706353798  1.0000
  C   C31       1.0  0.9017201583558972  0.7288506640843976  0.7341775737700346  1.0000
  C   C32       1.0  0.8677746377578287  0.7168130344711515  0.6975681708151931  1.0000
  C   C33       1.0  0.8690882512081294  0.7469040717478436  0.6558017576205059  1.0000
  C   C34       1.0  0.9046919552590154  0.789424457291041  0.6495734032569033  1.0000
  C   C35       1.0  0.9392240997688014  0.8019591124459375  0.6860208293334694  1.0000
  C   C36       1.0  0.9376032090976005  0.7716081093382884  0.7285804502906461  1.0000
  H   H21       1.0  0.8400257741932387  0.6839781239387691  0.7015606486110417  1.0000
  H   H22       1.0  0.8423491063364908  0.7369542528142164  0.6279768405024012  1.0000
  H   H23       1.0  0.9667852917445727  0.8348217473958114  0.6813708571262528  1.0000
  H   H24       1.0  0.9639854164079572  0.7809033762703066  0.7567761447294653  1.0000
  C   C37       1.0  0.817122208977089  0.213026087769532  0.03379712996931916  1.0000
  C   C38       1.0  0.8242130458891004  0.1658506085760788  0.03852300925097431  1.0000
  C   C39       1.0  0.804967161305439  0.13842559732356452  0.08211970569105426  1.0000
  C   C40       1.0  0.7799054501805943  0.15867578615552028  0.12124575316803965  1.0000
  C   C41       1.0  0.7736698819191759  0.20593921573049045  0.11661487602122556  1.0000
  C   C42       1.0  0.7914865872601313  0.232761150206843  0.07274791084309817  1.0000
  H   H25       1.0  0.842939815922187  0.15022054165855594  0.007937982836538682  1.0000
  H   H26       1.0  0.8089547586981214  0.10163205130072575  0.08528299267357543  1.0000
  H   H27       1.0  0.7542022423143065  0.2216557436942475  0.14668327066788978  1.0000
  H   H28       1.0  0.785699432528744  0.2690902080795397  0.06906326502289573  1.0000
  C   C43       1.0  0.10835493631589291  0.16320911158390528  0.004698744450349235  1.0000
  C   C44       1.0  0.12010821208756742  0.14353048656337536  0.9594141290081103  1.0000
  C   C45       1.0  0.15399790475396682  0.11106402383594743  0.9568552230227465  1.0000
  C   C46       1.0  0.17543691576387577  0.09733244981104325  0.9996388741303015  1.0000
  C   C47       1.0  0.16254685061641155  0.11612357217663342  0.04512554580168534  1.0000
  C   C48       1.0  0.12963807298203586  0.14938949558661274  0.04747583036729288  1.0000
  H   H29       1.0  0.10391658879321528  0.15392132348625162  0.9262244862336559  1.0000
  H   H30       1.0  0.16392347625130205  0.09669307056411469  0.9215451634561365  1.0000
  H   H31       1.0  0.1790381291775581  0.1059289009356523  0.0782307527780672  1.0000
  H   H32       1.0  0.1209413197430325  0.16465776847881738  0.08260358550342906  1.0000
  C   C49       1.0  0.020269541361596973  0.43207476339337436  0.8811700880757115  1.0000
  C   C50       1.0  0.9830050793679328  0.4285390381422808  0.9210852564703818  1.0000
  C   C51       1.0  0.971820311686254  0.4699108875695781  0.9431529022018074  1.0000
  C   C52       1.0  0.9968668258016647  0.5153040013559101  0.9250295926097513  1.0000
  C   C53       1.0  0.03357048226521795  0.5189165979682223  0.8845312686308108  1.0000
  C   C54       1.0  0.04532080890417467  0.47746150169766066  0.8628861058777264  1.0000
  H   H33       1.0  0.9631918209605288  0.3939007328533436  0.9354583139096175  1.0000
  H   H34       1.0  0.9435853731859422  0.4666937829787172  0.9746464071088042  1.0000
  H   H35       1.0  0.05390300665947753  0.5535710659612009  0.8708041622786327  1.0000
  H   H36       1.0  0.07440588447515085  0.4805744324240236  0.8321649583901202  1.0000
  C   C55       1.0  0.9756928247420326  0.11591944879503233  0.7572663611163739  1.0000
  C   C56       1.0  0.029187593532939093  0.12286872220194359  0.7553918479471703  1.0000
  C   C57       1.0  0.05586066032953485  0.09499374594292581  0.7245977416185074  1.0000
  C   C58       1.0  0.02920473655232958  0.06000831100612326  0.6958122874501442  1.0000
  C   C59       1.0  0.975702895237785  0.05185604906309224  0.699316151357948  1.0000
  C   C60       1.0  0.9491275160979845  0.08012346044237693  0.7294078418136996  1.0000
  H   H37       1.0  0.04997799347422993  0.15044082361530012  0.7766653304590306  1.0000
  H   H38       1.0  0.09732179380200656  0.10128814991290708  0.7223166811971218  1.0000
  H   H39       1.0  0.9547103302301588  0.024155656062655684  0.6784586182437267  1.0000
  H   H40       1.0  0.9076953357834721  0.07436121722445425  0.731090190076748  1.0000
  N   N1        1.0  0.0719186757390463  0.8962668050804112  0.7745975025737822  1.0000
  C   C61       1.0  0.1159089185815915  0.9200380592298043  0.8006612696153727  1.0000
  C   C62       1.0  0.08439645554444397  0.852726097612099  0.7522839576209203  1.0000
  C   C63       1.0  0.060945486528568724  0.9288269456068007  0.7351300650098078  1.0000
  C   C64       1.0  0.026455396652565542  0.8833371479547835  0.8105083573316302  1.0000
  H   H41       1.0  0.10779364115538016  0.9529121403769804  0.8182562430533934  1.0000
  H   H42       1.0  0.15094356454581442  0.9303530110069969  0.7747308330286006  1.0000
  H   H43       1.0  0.12530465755671266  0.896297672773184  0.8306013011862332  1.0000
  H   H44       1.0  0.052160475969400794  0.8338994837495405  0.7321334557571709  1.0000
  H   H45       1.0  0.11878672146025203  0.8610430265888304  0.7252693569703701  1.0000
  H   H46       1.0  0.09258449343131803  0.827308264081838  0.7812421231658786  1.0000
  H   H47       1.0  0.027883075362426974  0.9121998265474205  0.7146906653782044  1.0000
  H   H48       1.0  0.0943804440869249  0.9393727676021646  0.7072257337047065  1.0000
  H   H49       1.0  0.051616993502158204  0.9622576134801968  0.7505172775289065  1.0000
  H   H50       1.0  0.9926227221196765  0.8647715222810738  0.7923165197235279  1.0000
  H   H51       1.0  0.01573455644265627  0.9153280617071108  0.8279269925661075  1.0000
  H   H52       1.0  0.03381837684183997  0.8591293581706079  0.8409868351338932  1.0000
  N   N2        1.0  0.6920988112751205  0.8409575810112508  0.03028779236770696  1.0000
  C   C65       1.0  0.6462432752629632  0.8381546359700711  0.06549004341483605  1.0000
  C   C66       1.0  0.6766578003329341  0.820956080193502  0.9826544228878371  1.0000
  C   C67       1.0  0.728010681710142  0.8135722491751745  0.0513064223967418  1.0000
  C   C68       1.0  0.7175545331930474  0.8911808651705883  0.021667175006320424  1.0000
  H   H53       1.0  0.618560392777319  0.8591321458099318  0.051391544850816616  1.0000
  H   H54       1.0  0.656561577699793  0.8526483362097748  0.10200680024049838  1.0000
  H   H55       1.0  0.6256782845778868  0.8008737983534058  0.07267011853759217  1.0000
  H   H56       1.0  0.7104879285391799  0.8226105457820819  0.9553074835326083  1.0000
  H   H57       1.0  0.657414732123307  0.7830250098799284  0.987734662719015  1.0000
  H   H58       1.0  0.64948926549596  0.8408042707028816  0.9658146038352609  1.0000
  H   H59       1.0  0.7634259971862055  0.8153929772006161  0.026002600165087264  1.0000
  H   H60       1.0  0.7103958113551175  0.7753758310371041  0.057895250511304154  1.0000
  H   H61       1.0  0.7400493581980728  0.8274875140043368  0.08753505035829132  1.0000
  H   H62       1.0  0.7299423902573163  0.9073349927365129  0.056726256242182645  1.0000
  H   H63       1.0  0.6915257949394842  0.9131110401785434  0.006226163226773718  1.0000
  H   H64       1.0  0.7525796092725736  0.8947807595574905  0.9955030706577981  1.0000
  N   N3        1.0  0.12983185773103906  0.3727601120375816  0.9726191290644266  1.0000
  C   C69       1.0  0.1514053352350867  0.4151703562440643  0.9402516981860735  1.0000
  C   C70       1.0  0.16420997086421352  0.36799601228066825  0.01216983947004735  1.0000
  C   C71       1.0  0.12455904674715028  0.32990054633868976  0.9426627012988354  1.0000
  C   C72       1.0  0.07895462100350711  0.3778281572804454  0.9953713291081348  1.0000
  H   H65       1.0  0.12611901626828256  0.4194600238414563  0.9100221059835631  1.0000
  H   H66       1.0  0.18972265216423756  0.4125976150392158  0.9222256697918717  1.0000
  H   H67       1.0  0.15550834841714117  0.4482964910793985  0.9614709748644079  1.0000
  H   H68       1.0  0.1489312527922276  0.3358797816838004  0.03674002882957872  1.0000
  H   H69       1.0  0.20304260383055475  0.3642720365630966  0.9963217362856428  1.0000
  H   H70       1.0  0.16867534860161773  0.39946838144242347  0.035914554066026616  1.0000
  H   H71       1.0  0.16221866752212552  0.32440976754826845  0.925449398244036  1.0000
  H   H72       1.0  0.09943620203146113  0.3325356873875152  0.9120476852141106  1.0000
  H   H73       1.0  0.10738742248301018  0.2972950641580645  0.96563306890606  1.0000
  H   H74       1.0  0.08114645330801273  0.4103119185312347  0.017476949514320328  1.0000
  H   H75       1.0  0.06159230163446665  0.34664960710834203  0.020421303550709702  1.0000
  H   H76       1.0  0.05191000827890015  0.38067302154005833  0.9664837183912214  1.0000
  N   N4        1.0  0.028093128884398872  0.8356814910340471  0.09011784508957547  1.0000
  C   C73       1.0  0.034078785713363244  0.8192823102234132  0.038958960175182224  1.0000
  C   C74       1.0  0.00564680143855223  0.87922208345238  0.08952493354024328  1.0000
  C   C75       1.0  0.0787996818361835  0.8460857894257128  0.11043551762305638  1.0000
  C   C76       1.0  0.9939602556037807  0.7980549382585943  0.1214560145674796  1.0000
  H   H77       1.0  0.059937506033374985  0.8465476096823824  0.014212270979178099  1.0000
  H   H78       1.0  0.9965888181572276  0.8109027433378349  0.022380273943882978  1.0000
  H   H79       1.0  0.05090022424233582  0.7864738339368612  0.03821391864986641  1.0000
  H   H80       1.0  0.9674795237675323  0.8726299379791441  0.0740744697886933  1.0000
  H   H81       1.0  0.000343445399413554  0.8924103712666157  0.12762765730668194  1.0000
  H   H82       1.0  0.03078533735499806  0.9082597376362364  0.06631525012288197  1.0000
  H   H83       1.0  0.07619151793810398  0.8590422376093365  0.1488601795116566  1.0000
  H   H84       1.0  0.10584853795003935  0.8738145904911974  0.08727145532230887  1.0000
  H   H85       1.0  0.09691027607341968  0.8139722844783798  0.11159401532667543  1.0000
  H   H86       1.0  0.9887733419667945  0.8089952200932292  0.16045729300791944  1.0000
  H   H87       1.0  0.00961626805254845  0.7645538294852695  0.12211095488152152  1.0000
  H   H88       1.0  0.9553152100555642  0.7893377168285389  0.10722301363545253  1.0000
  N   N5        1.0  0.6221784671920002  0.10689927934331256  0.08005524861129532  1.0000
  C   C77       1.0  0.6728655037581772  0.12234148276821477  0.05244882059715028  1.0000
  C   C78       1.0  0.5889272279474971  0.14156247579518877  0.07010318984619279  1.0000
  C   C79       1.0  0.62859158803991  0.10425242126978018  0.1338653699761274  1.0000
  C   C80       1.0  0.5982787579309861  0.059583988844325475  0.0638789822629704  1.0000
  H   H89       1.0  0.6994687352796597  0.09779375615037167  0.060214888456886495  1.0000
  H   H90       1.0  0.6914810982433339  0.15834793774019373  0.06305183679835569  1.0000
  H   H91       1.0  0.6699279993527129  0.12397989403609677  0.011619628732560727  1.0000
  H   H92       1.0  0.5502283467064112  0.13086160376620293  0.09022641950798649  1.0000
  H   H93       1.0  0.6057300106160791  0.17758760436525955  0.08218559408321857  1.0000
  H   H94       1.0  0.5834752772936814  0.14466123705841483  0.02978887392744567  1.0000
  H   H95       1.0  0.5910519465416408  0.09422685819836851  0.1560514453144899  1.0000
  H   H96       1.0  0.6484030114220595  0.13887429891767544  0.14702315765448803  1.0000
  H   H97       1.0  0.6522446028641432  0.07740559321584639  0.14304463688576252  1.0000
  H   H98       1.0  0.5589167129990765  0.04794743052943162  0.08218849623417857  1.0000
  H   H99       1.0  0.6208681172530996  0.03189488312139921  0.07324900051471372  1.0000
  H   H100      1.0  0.5949223116835877  0.05968408268192893  0.02310000451542682  1.0000
  N   N6        1.0  0.9683818759561466  0.07464743683229448  0.07056143919405271  1.0000
  C   C81       1.0  0.9963653461735145  0.0763074142743361  0.02098064374344144  1.0000
  C   C82       1.0  0.916866395445452  0.08560619173987584  0.06526879535909322  1.0000
  C   C83       1.0  0.9968464160785504  0.11008649498893718  0.10201760347787212  1.0000
  C   C84       1.0  0.9634048338150885  0.02665618468659705  0.09400034135899002  1.0000
  H   H101      1.0  0.035832146109031404  0.06904495397347028  0.023519615151113223  1.0000
  H   H102      1.0  0.00030728777613209246  0.11194741144121931  0.0020969765257468076  1.0000
  H   H103      1.0  0.9760917814532646  0.04981896470814302  0.9963556064268918  1.0000
  H   H104      1.0  0.9193174567641462  0.12159689187533906  0.04755089707826908  1.0000
  H   H105      1.0  0.8940715542591884  0.059421146033096  0.041962742988221766  1.0000
  H   H106      1.0  0.8947725869867983  0.0849293215438351  0.10201850363912271  1.0000
  H   H107      1.0  0.9769427848436619  0.10964899173948589  0.13980507545733603  1.0000
  H   H108      1.0  0.0009943191624139924  0.1467700390935573  0.08555124552824674  1.0000
  H   H109      1.0  0.036171910084637826  0.10327904223767634  0.10636892767908443  1.0000
  H   H110      1.0  0.0016578042387822567  0.017667450719594684  0.0992974602454752  1.0000
  H   H111      1.0  0.9426555774447244  0.9990028033939565  0.07086617199848017  1.0000
  H   H112      1.0  0.9415022303212904  0.02388498816846338  0.13107553130127397  1.0000
  N   N7        1.0  0.8058990523945583  0.8571600272134885  0.49123030016486785  1.0000
  C   C85       1.0  0.828129721222036  0.8997591743369807  0.5174984015169802  1.0000
  C   C86       1.0  0.8475167244900869  0.837260186538613  0.46502069452843336  1.0000
  C   C87       1.0  0.7715880395110732  0.8704775170419065  0.4548941470463746  1.0000
  C   C88       1.0  0.7764842430715454  0.8211388694492605  0.5276618718130124  1.0000
  H   H113      1.0  0.7979214529562202  0.9163903371206453  0.5368612910118133  1.0000
  H   H114      1.0  0.8516557514592868  0.9272081388245856  0.49138594290229587  1.0000
  H   H115      1.0  0.8535120981544455  0.8909037923439084  0.5457982509025082  1.0000
  H   H116      1.0  0.8322124962013019  0.8050221814638193  0.44482773534069664  1.0000
  H   H117      1.0  0.8706361032517373  0.8634189698590169  0.43726702961164343  1.0000
  H   H118      1.0  0.8742329413391854  0.8270085856252019  0.49141893374656315  1.0000
  H   H119      1.0  0.7923386813950932  0.8986836253390708  0.42785268857556435  1.0000
  H   H120      1.0  0.7390689479573778  0.8846229725630268  0.4734391789420229  1.0000
  H   H121      1.0  0.755411849744206  0.8396598028794434  0.43302422561025555  1.0000
  H   H122      1.0  0.7451038854191876  0.8350346259721663  0.5486037016426187  1.0000
  H   H123      1.0  0.8015968717845569  0.8103029472719141  0.5554039307386378  1.0000
  H   H124      1.0  0.759077059108556  0.7884905613001714  0.5091801837308735  1.0000
  N   N8        1.0  0.9057039711929242  0.5393095954857662  0.8035148484329251  1.0000
  C   C89       1.0  0.9156502031776497  0.4909292828747734  0.8134501508904203  1.0000
  C   C90       1.0  0.8498631066978822  0.5383962191180294  0.8064087493907388  1.0000
  C   C91       1.0  0.9286828712355483  0.5571469469802071  0.7535434125416021  1.0000
  C   C92       1.0  0.9287099509688495  0.5713355886820473  0.8409544206377441  1.0000
  H   H125      1.0  0.9574851979703977  0.4904051326304805  0.8105638659826232  1.0000
  H   H126      1.0  0.8977190735643595  0.4652847877875075  0.7867617438076957  1.0000
  H   H127      1.0  0.9004664293306458  0.4772574202894855  0.8516769348861544  1.0000
  H   H128      1.0  0.8414625451881871  0.5746950942152947  0.7995113072198974  1.0000
  H   H129      1.0  0.8309548486129467  0.5147732397009971  0.7785114374572077  1.0000
  H   H130      1.0  0.8314736531260825  0.5254353488200558  0.8438368787460133  1.0000
  H   H131      1.0  0.9122747689640444  0.5339315805585262  0.7241226901599694  1.0000
  H   H132      1.0  0.9709396647838264  0.5588789440296995  0.7503757630916339  1.0000
  H   H133      1.0  0.921896698897674  0.5937884121993307  0.7452817352947481  1.0000
  H   H134      1.0  0.9708503587750079  0.573364380036613  0.8400009272699351  1.0000
  H   H135      1.0  0.9122235612479999  0.559335631762737  0.8792520165799882  1.0000
  H   H136      1.0  0.9220164557480028  0.6080266642035357  0.8343969200670321  1.0000
  N   N9        1.0  0.9826693070091044  0.1368169390605508  0.5706818348748426  1.0000
  C   C93       1.0  0.017339260455887465  0.13497896258513717  0.5256595550841757  1.0000
  C   C94       1.0  0.012901227112581461  0.15635375707645885  0.61168346663687  1.0000
  C   C95       1.0  0.9551801251698158  0.08831447081568128  0.5851920859578404  1.0000
  C   C96       1.0  0.9451002970782831  0.16716693918664013  0.5602118068753329  1.0000
  H   H137      1.0  0.9958525275219857  0.11857164234914619  0.49459101541123135  1.0000
  H   H138      1.0  0.0469345398613248  0.11326453296616225  0.5328463496825228  1.0000
  H   H139      1.0  0.03778578463885119  0.17107628092267926  0.512581144065405  1.0000
  H   H140      1.0  0.9880294933150848  0.1571417708836578  0.6466539506312029  1.0000
  H   H141      1.0  0.04191791436240571  0.13434706683693434  0.6201223863558731  1.0000
  H   H142      1.0  0.03376995373080765  0.19321501836781807  0.6024815404040567  1.0000
  H   H143      1.0  0.9284325161653396  0.08812813733585553  0.6189262964029011  1.0000
  H   H144      1.0  0.982603200742996  0.06470245455130473  0.5934116630231392  1.0000
  H   H145      1.0  0.9321630779917122  0.07218442183324207  0.5551222461264228  1.0000
  H   H146      1.0  0.9183701683018648  0.16914835895827418  0.5935487200520868  1.0000
  H   H147      1.0  0.9215185819658331  0.15296869095489846  0.5296385075360104  1.0000
  H   H148      1.0  0.9644476245216729  0.20410008418365896  0.5489198622386917  1.0000
  N   N10       1.0  0.3109259922891573  0.026003973346604762  0.31145583668714083  1.0000
  C   C97       1.0  0.279426787880809  0.9837596618927719  0.3382235080854754  1.0000
  C   C98       1.0  0.3286173647227787  0.062205754361605824  0.34744698038713373  1.0000
  C   C99       1.0  0.27988763759673224  0.04596217167127598  0.2761533203328076  1.0000
  C   C100      1.0  0.3556787227065249  0.01211500082749477  0.28391678384589275  1.0000
  H   H149      1.0  0.26653465586865016  0.9553229505273241  0.3121493355559025  1.0000
  H   H150      1.0  0.24439573394139216  0.9926100748127773  0.3582282912493805  1.0000
  H   H151      1.0  0.3010827480141925  0.9683189288653271  0.36609465306288197  1.0000
  H   H152      1.0  0.3521308000144663  0.09470491797419239  0.32830534744359396  1.0000
  H   H153      1.0  0.2955748131346013  0.0731093118711566  0.3689649638891159  1.0000
  H   H154      1.0  0.35246552958374494  0.0484783075574997  0.3745013102192284  1.0000
  H   H155      1.0  0.30266753627363124  0.07704300467930594  0.25404123750422175  1.0000
  H   H156      1.0  0.2459660809930084  0.05742946783550975  0.2954745642469194  1.0000
  H   H157      1.0  0.26482319431920603  0.019247989725879974  0.2492975831990513  1.0000
  H   H158      1.0  0.3796862547938749  0.9961135136094411  0.30904529876665504  1.0000
  H   H159      1.0  0.3805985307985966  0.04319627786905518  0.2635444469389301  1.0000
  H   H160      1.0  0.34362588223183654  0.9855509763276186  0.25561386675215586  1.0000
