#------------------------------------------------------------------------------#
# simulation settings
#------------------------------------------------------------------------------#

##### simulation variables

variable        seed 	equal  20902
variable        T       equal  300	    #K
variable        p       equal  0.0 	#bar
variable        damp_T  equal  100 		  	#K
variable        damp_P  equal  1000.0	  	#bar
variable        dT      equal  1.0 		 	#fs
variable        kb      equal  0.0019872041

## system setup ##

units           real
atom_style      full
boundary        p p p

pair_style      lj/cut/soft 1 0.5 12.5
bond_style      harmonic
angle_style     hybrid cosine/periodic fourier
dihedral_style  harmonic
improper_style  fourier

pair_modify 	tail yes mix arithmetic
special_bonds 	lj/coul 0.0 0.0 1.0

read_data 	 	../data.emin_sod-4c_Zn-2c_mim_fe
Reading data file ...
  triclinic box = (4.5054746 4.3760097 4.4164229) to (20.786525 20.913779 20.965143) with tilt (-0.95270579 -0.51398262 -1.0127119)
  reading atoms ...
  276 atoms
  reading velocities ...
  276 velocities
  scanning bonds ...
  scanning angles ...
  scanning dihedrals ...
  scanning impropers ...
  reading bonds ...
  312 bonds
  reading angles ...
  576 angles
  reading dihedrals ...
  624 dihedrals
  reading impropers ...
  360 impropers
Finding 1-2 1-3 1-4 neighbors ...
     4 = max # of 1-2 neighbors
     8 = max # of 1-3 neighbors
    12 = max # of special neighbors
include 	 	../non_bonded_sod-4c_Zn-2c_mim_lj.param
### Parameters for Equilibration ###

### Parameters for MOF ###

mass 1 65.380000000
mass 2 14.006700000
mass 3 12.010700000
mass 4 1.007940000
mass 5 12.010700000

bond_coeff 1 165.837318 1.881712
bond_coeff 2 663.718927 1.345073
bond_coeff 3 369.943935 1.486000
bond_coeff 4 462.655054 1.379256
bond_coeff 5 357.440381 1.081418
bond_coeff 6 331.069389 1.109401

angle_coeff 1 fourier 197.524216 0.343737 0.374972 0.281246
angle_coeff 2 cosine/periodic 45.889625 -1 3
angle_coeff 3 cosine/periodic 120.000516 -1 3
angle_coeff 4 cosine/periodic 212.442573 -1 3
angle_coeff 5 cosine/periodic 136.548728 -1 3
angle_coeff 6 cosine/periodic 153.699352 -1 3
angle_coeff 7 cosine/periodic 79.786967 -1 3
angle_coeff 8 cosine/periodic 57.289016 -1 3
angle_coeff 9 fourier 121.777217 0.343737 0.374972 0.281246
angle_coeff 10 fourier 75.498766 0.343737 0.374972 0.281246

dihedral_coeff 1 3.368555 -1 2
dihedral_coeff 2 0.166667 1 3

improper_coeff 1 2.000000 1.000000 -1.000000 0.000000 0

pair_coeff 1 1 0.124 2.46155 1 12.5
pair_coeff 1 2 0.0924986 2.86112 1 12.5
pair_coeff 1 3 0.114105 2.9462 1 12.5
pair_coeff 1 4 0.0738647 2.51634 1 12.5
pair_coeff 1 5 0.114105 2.9462 1 12.5
pair_coeff 2 2 0.069 3.26069 1 12.5
pair_coeff 2 3 0.0851176 3.34577 1 12.5
pair_coeff 2 4 0.0550999 2.91591 1 12.5
pair_coeff 2 5 0.0851176 3.34577 1 12.5
pair_coeff 3 3 0.105 3.43085 1 12.5
pair_coeff 3 4 0.0679706 3.00099 1 12.5
pair_coeff 3 5 0.105 3.43085 1 12.5
pair_coeff 4 4 0.044 2.57113 1 12.5
pair_coeff 4 5 0.0679706 3.00099 1 12.5
pair_coeff 5 5 0.105 3.43085 1 12.5

group			fram type < 6
276 atoms in group fram

fix				SPRING fram spring/self 10 	# harmonic restraint to framework

#------------------------------------------------------------------------------#
# equilibration
#------------------------------------------------------------------------------#

reset_timestep	0

variable 		delta equal 0
fix 			ADAPT all adapt 0 pair lj/cut/soft lambda * * v_delta

thermo_style	custom step etotal ke pe temp press density vol evdwl etail ecoul elong epair
thermo 			5000
velocity 		all create 300 20902

fix				f1 all nve
fix 			f2 all langevin 300 300 100 20902 zero yes
compute 		c1 all temp/com
fix_modify		f2 temp c1

run				500000
Generated 0 of 10 mixed pair_coeff terms from arithmetic mixing rule
  update every 1 steps, delay 10 steps, check yes
Step         TotEng         KinEng         PotEng          Temp          Press         Density         Volume         E_vdwl         E_tail         E_coul         E_long         E_pair
0   1339.25        245.91683      1093.3332      300            4981.2392      1.0177122      4455.7805      0              0              0              0              0
Averages over the last 51 of 101 rows, steps 250000 to 500000:
TotEng KinEng PotEng Temp Press Density Volume E_vdwl E_tail E_coul E_long E_pair
1530.67 250.014 1280.66 304.999 -1543.16 1.01771 4455.78 0 0 0 0 0
Loop time of 57.4161 on 4 procs for 500000 steps with 276 atoms

unfix			ADAPT

#------------------------------------------------------------------------------#
# sampling
#------------------------------------------------------------------------------#

reset_timestep	0

variable		ddlambda equal 0.001
variable		ddlambda_n equal -0.001

compute 		ALL1 all fep 300 pair lj/cut/soft lambda * * v_ddlambda
compute 		ALL2 all fep 300 pair lj/cut/soft lambda * * v_ddlambda_n
variable 		dudlam equal (c_ALL1[1]-c_ALL2[1])/0.002

fix				ALL all ave/time 250 1 250 v_dudlam file LJ_0.lmp

thermo_style	custom step etotal ke pe temp press density vol evdwl etail ecoul elong epair v_dudlam
thermo			250

run 			800000
Generated 0 of 10 mixed pair_coeff terms from arithmetic mixing rule
FEP settings ...
  temperature = 300.000000
  tail no
  pair lj/cut/soft lambda 1-5 1-5
FEP settings ...
  temperature = 300.000000
  tail no
  pair lj/cut/soft lambda 1-5 1-5
Step         TotEng         KinEng         PotEng          Temp          Press         Density         Volume         E_vdwl         E_tail         E_coul         E_long         E_pair        v_dudlam
0   1533.83        246.81392      1287.0161      301.09438      213.38547      1.0177122      4455.7805      0              0              0              0              0             -231.8089
Averages over the last 1601 of 3201 rows, steps 400000 to 800000:
TotEng KinEng PotEng Temp Press Density Volume E_vdwl E_tail E_coul E_long E_pair v_dudlam
1530.98 250.371 1280.61 305.434 -1440.49 1.01771 4455.78 0 0 0 0 0 -231.9
Loop time of 96.1224 on 4 procs for 800000 steps with 276 atoms

unfix			f1
unfix			f2
