#------------------------------------------------------------------------------#
# simulation settings
#------------------------------------------------------------------------------#

##### simulation variables

variable        seed 	equal  20902
variable        T       equal  300	    #K
variable        p       equal  0.0 	#bar
variable        damp_T  equal  100 		  	#K
variable        damp_P  equal  1000.0	  	#bar
variable        dT      equal  1.0 		 	#fs
variable        kb      equal  0.0019872041

## system setup ##

units           real
atom_style      full
boundary        p p p

pair_style      lj/cut/coul/long 12.500
bond_style      harmonic
angle_style     hybrid cosine/periodic fourier
dihedral_style  harmonic
improper_style  fourier
kspace_style 	ewald 0.000001

dielectric 	 	1.0
pair_modify 	tail yes mix arithmetic
special_bonds 	lj/coul 0.0 0.0 1.0

read_data 	 	../data.emin_sod-4c_Zn-2c_mim_fe
Reading data file ...
  triclinic box = (4.5054746 4.3760097 4.4164229) to (20.786525 20.913779 20.965143) with tilt (-0.95270579 -0.51398262 -1.0127119)
  reading atoms ...
  276 atoms
  reading velocities ...
  276 velocities
  scanning bonds ...
  scanning angles ...
  scanning dihedrals ...
  scanning impropers ...
  reading bonds ...
  312 bonds
  reading angles ...
  576 angles
  reading dihedrals ...
  624 dihedrals
  reading impropers ...
  360 impropers
Finding 1-2 1-3 1-4 neighbors ...
     4 = max # of 1-2 neighbors
     8 = max # of 1-3 neighbors
    12 = max # of special neighbors
include 	 	../non_bonded_sod-4c_Zn-2c_mim.param
### Parameters for Equilibration ###

### Parameters for MOF ###

mass 1 65.380000000
mass 2 14.006700000
mass 3 12.010700000
mass 4 1.007940000
mass 5 12.010700000

bond_coeff 1 165.837318 1.881712
bond_coeff 2 663.718927 1.345073
bond_coeff 3 369.943935 1.486000
bond_coeff 4 462.655054 1.379256
bond_coeff 5 357.440381 1.081418
bond_coeff 6 331.069389 1.109401

angle_coeff 1 fourier 197.524216 0.343737 0.374972 0.281246
angle_coeff 2 cosine/periodic 45.889625 -1 3
angle_coeff 3 cosine/periodic 120.000516 -1 3
angle_coeff 4 cosine/periodic 212.442573 -1 3
angle_coeff 5 cosine/periodic 136.548728 -1 3
angle_coeff 6 cosine/periodic 153.699352 -1 3
angle_coeff 7 cosine/periodic 79.786967 -1 3
angle_coeff 8 cosine/periodic 57.289016 -1 3
angle_coeff 9 fourier 121.777217 0.343737 0.374972 0.281246
angle_coeff 10 fourier 75.498766 0.343737 0.374972 0.281246

dihedral_coeff 1 3.368555 -1 2
dihedral_coeff 2 0.166667 1 3

improper_coeff 1 2.000000 1.000000 -1.000000 0.000000 0

pair_coeff 1 1 0.124 2.46155
pair_coeff 1 2 0.0924986 2.86112
pair_coeff 1 3 0.114105 2.9462
pair_coeff 1 4 0.0738647 2.51634
pair_coeff 1 5 0.114105 2.9462
pair_coeff 2 2 0.069 3.26069
pair_coeff 2 3 0.0851176 3.34577
pair_coeff 2 4 0.0550999 2.91591
pair_coeff 2 5 0.0851176 3.34577
pair_coeff 3 3 0.105 3.43085
pair_coeff 3 4 0.0679706 3.00099
pair_coeff 3 5 0.105 3.43085
pair_coeff 4 4 0.044 2.57113
pair_coeff 4 5 0.0679706 3.00099
pair_coeff 5 5 0.105 3.43085

group			fram type < 6
276 atoms in group fram

#------------------------------------------------------------------------------#
# ti/spring definition
#------------------------------------------------------------------------------#

reset_timestep	0

variable		t_s equal 1000000
variable		t_eq equal 500000

variable        t_eq equal 500000-1
variable        t_s equal 1000000+1

fix             fs1 fram ti/spring 10 1000001 499999 function 2

variable        dE equal f_fs1
variable        lambda equal f_fs1[1]

fix				f1 all nve
fix 			f2 all langevin 300 300 100 20902 zero yes
compute 		c1 all temp/com
fix_modify		f2 temp c1

thermo_style	custom step etotal ke pe temp press density vol evdwl etail ecoul elong epair f_fs1
thermo 			1000

#------------------------------------------------------------------------------#
# switching
#------------------------------------------------------------------------------#

### forward integration, save to forward.dat

run             499999

CITE-CITE-CITE-CITE-CITE-CITE-CITE-CITE-CITE-CITE-CITE-CITE-CITE

Your simulation uses code contributions which should be cited:

- ti/spring command:

@article{freitas2016,
  author={Freitas, Rodrigo and Asta, Mark and de Koning, Maurice},
  title={Nonequilibrium free-energy calculation of solids using LAMMPS},
  journal={Computational Materials Science},
  volume={112},
  pages={333--341},
  year={2016},
  publisher={Elsevier}
}

CITE-CITE-CITE-CITE-CITE-CITE-CITE-CITE-CITE-CITE-CITE-CITE-CITE

Ewald initialization ...
  G vector (1/distance) = 0.24281392
  estimated absolute RMS force accuracy = 0.00037231444
  estimated relative force accuracy = 1.1212139e-06
  KSpace vectors: actual max1d max3d = 131 4 364
                  kxmax kymax kzmax  = 4 4 4
Generated 0 of 10 mixed pair_coeff terms from arithmetic mixing rule
  update every 1 steps, delay 10 steps, check yes
Step         TotEng         KinEng         PotEng          Temp          Press         Density         Volume         E_vdwl         E_tail         E_coul         E_long         E_pair         f_fs1
0  -404.11072      236.8846      -640.99532      288.98137      2330.6998      1.0177122      4455.7805     -161.77947     -4.6924513     -680.98253     -891.56651     -1734.3285      0
Averages over the last 251 of 501 rows, steps 250000 to 499999:
TotEng KinEng PotEng Temp Press Density Volume E_vdwl E_tail E_coul E_long E_pair f_fs1
-137.167 248.91 -386.077 303.652 1131.29 1.01771 4455.78 -144.625 -4.69245 -680.164 -891.485 -1716.27 2.63673
Loop time of 98.6371 on 4 procs for 499999 steps with 276 atoms

run             1000001
Ewald initialization ...
  G vector (1/distance) = 0.24281392
  estimated absolute RMS force accuracy = 0.00037231444
  estimated relative force accuracy = 1.1212139e-06
  KSpace vectors: actual max1d max3d = 131 4 364
                  kxmax kymax kzmax  = 4 4 4
Generated 0 of 10 mixed pair_coeff terms from arithmetic mixing rule
Step         TotEng         KinEng         PotEng          Temp          Press         Density         Volume         E_vdwl         E_tail         E_coul         E_long         E_pair         f_fs1
499999  -120.84583      247.0776      -367.92344      301.41606      3098.6923      1.0177122      4455.7805     -147.01012     -4.6924513     -680.36199     -891.34687     -1718.719       661.82036
Averages over the last 394 of 787 rows, steps 892000 to 1285000:
TotEng KinEng PotEng Temp Press Density Volume E_vdwl E_tail E_coul E_long E_pair f_fs1
-157.019 251.035 -408.055 306.244 1115.25 1.01771 4455.78 -147.6 -4.69245 -680.813 -891.496 -1719.91 37.6692
