data_image0
_chemical_formula_structural       CHCH2S2CHSHCSC2Fe2HCS2H2CHCSCH3NHCHCNC3H3CHCSH3C3H2C2FeCHCH3C3H2CNHC3H2C6NCHSH2FeCH2CH2CHFeH2C2SNHSHCFeC3H2FeC4SH2SCSHCHCH2CFeH2FeS2HCNHCSCSCHSCH3CH3SFe2SHCSCH2C4SHCH2FeC3NFeHFeCHCH3CHSCFeCHCHSHCHC2SC2H2CS2C3FeSCFeSHSFeC2HSCFeHCHC3NCSCH5C2S2H2CNHCH4C4SCSNHNCFeHC2H6C4H4CHS2FeCH2C3HFeHC2HC2HCSH4SHC3H2CH2C4NCH2S2CFeCHSHCSHSH4C2H2CHCSHSCHFeH2C3H2CHC
_chemical_formula_sum              "C144 H144 S48 Fe24 N12"
_cell_length_a       19.7255
_cell_length_b       20.9124
_cell_length_c       19.1608
_cell_angle_alpha    113.829
_cell_angle_beta     68.8413
_cell_angle_gamma    116.474

_space_group_name_H-M_alt    "P 1"
_space_group_IT_number       1

loop_
  _space_group_symop_operation_xyz
  'x, y, z'

loop_
  _atom_site_type_symbol
  _atom_site_label
  _atom_site_symmetry_multiplicity
  _atom_site_fract_x
  _atom_site_fract_y
  _atom_site_fract_z
  _atom_site_occupancy
  C   C1        1.0  0.07452  0.43155  0.29712  1.0000
  H   H1        1.0  0.29937  0.62924  0.23140  1.0000
  C   C2        1.0  0.08734  0.37563  0.22782  1.0000
  H   H2        1.0  0.89650  0.41562  0.29474  1.0000
  H   H3        1.0  0.21072  0.69130  0.38458  1.0000
  S   S1        1.0  0.14681  0.48824  0.35034  1.0000
  S   S2        1.0  0.87897  0.51861  0.25596  1.0000
  C   C3        1.0  0.95031  0.40547  0.27521  1.0000
  H   H4        1.0  0.14050  0.36422  0.20900  1.0000
  S   S3        1.0  0.34787  0.49656  0.34955  1.0000
  H   H5        1.0  0.99569  0.48896  0.37472  1.0000
  C   C4        1.0  0.96559  0.35372  0.20317  1.0000
  S   S4        1.0  0.31862  0.45068  0.17439  1.0000
  C   C5        1.0  0.28992  0.60555  0.17237  1.0000
  C   C6        1.0  0.00553  0.44566  0.32135  1.0000
  Fe  Fe1       1.0  0.33906  0.37899  0.32114  1.0000
  Fe  Fe2       1.0  0.24624  0.44683  0.29465  1.0000
  H   H6        1.0  0.17584  0.52835  0.20381  1.0000
  C   C7        1.0  0.22017  0.54845  0.15635  1.0000
  S   S5        1.0  0.27601  0.83316  0.18197  1.0000
  S   S6        1.0  0.91999  0.66123  0.15458  1.0000
  H   H7        1.0  0.00447  0.56583  0.59897  1.0000
  H   H8        1.0  0.23767  0.54829  0.47824  1.0000
  C   C8        1.0  0.32684  0.48551  0.59501  1.0000
  H   H9        1.0  0.29101  0.81812  0.43155  1.0000
  C   C9        1.0  0.95794  0.53726  0.56769  1.0000
  S   S7        1.0  0.10496  0.35517  0.58095  1.0000
  C   C10       1.0  0.26861  0.81341  0.49049  1.0000
  H   H10       1.0  0.34617  0.49177  0.53521  1.0000
  H   H11       1.0  0.26408  0.47775  0.61506  1.0000
  H   H12       1.0  0.92972  0.63515  0.59675  1.0000
  N   N1        1.0  0.22161  0.74586  0.50372  1.0000
  H   H13       1.0  0.11869  0.49274  0.56722  1.0000
  C   C11       1.0  0.91652  0.57601  0.56610  1.0000
  H   H14       1.0  0.15789  0.68631  0.58860  1.0000
  C   C12       1.0  0.23042  0.57535  0.54044  1.0000
  N   N2        1.0  0.87732  0.42330  0.49275  1.0000
  C   C13       1.0  0.16275  0.54383  0.59093  1.0000
  C   C14       1.0  0.28756  0.64192  0.56999  1.0000
  C   C15       1.0  0.20499  0.67829  0.43764  1.0000
  H   H15       1.0  0.24619  0.64959  0.42355  1.0000
  H   H16       1.0  0.97066  0.43068  0.53037  1.0000
  H   H17       1.0  0.33318  0.43422  0.59212  1.0000
  C   C16       1.0  0.93784  0.46053  0.52980  1.0000
  H   H18       1.0  0.14503  0.63866  0.45175  1.0000
  C   C17       1.0  0.19384  0.74013  0.57827  1.0000
  S   S8        1.0  0.06921  0.53744  0.73448  1.0000
  H   H19       1.0  0.32016  0.72874  0.67384  1.0000
  H   H20       1.0  0.96668  0.52754  0.88721  1.0000
  H   H21       1.0  0.27172  0.50234  0.82601  1.0000
  C   C18       1.0  0.27618  0.67775  0.65047  1.0000
  C   C19       1.0  0.22860  0.39167  0.74942  1.0000
  C   C20       1.0  0.33720  0.58989  0.71613  1.0000
  H   H22       1.0  0.27439  0.57188  0.73340  1.0000
  H   H23       1.0  0.06755  0.65198  0.88420  1.0000
  C   C21       1.0  0.28497  0.45293  0.78699  1.0000
  C   C22       1.0  0.35861  0.45080  0.77318  1.0000
  Fe  Fe3       1.0  0.03275  0.41285  0.68576  1.0000
  C   C23       1.0  0.15172  0.57907  0.67128  1.0000
  H   H24       1.0  0.17239  0.39432  0.75977  1.0000
  C   C24       1.0  0.20759  0.64688  0.70110  1.0000
  H   H25       1.0  0.19914  0.67413  0.76349  1.0000
  H   H26       1.0  0.19293  0.79769  0.70074  1.0000
  H   H27       1.0  0.35219  0.68271  0.82112  1.0000
  C   C25       1.0  0.21357  0.80295  0.64195  1.0000
  C   C26       1.0  0.16875  0.67918  0.02270  1.0000
  C   C27       1.0  0.91421  0.70473  0.00450  1.0000
  H   H28       1.0  0.99070  0.54857  0.06342  1.0000
  H   H29       1.0  0.12631  0.55925  0.99067  1.0000
  C   C28       1.0  0.26506  0.54227  0.02173  1.0000
  N   N3        1.0  0.85972  0.63600  0.00777  1.0000
  H   H30       1.0  0.05734  0.78722  0.13143  1.0000
  C   C29       1.0  0.03465  0.60288  0.06291  1.0000
  C   C30       1.0  0.95245  0.57771  0.91995  1.0000
  C   C31       1.0  0.14880  0.74326  0.06121  1.0000
  H   H31       1.0  0.08546  0.46566  0.11427  1.0000
  H   H32       1.0  0.25606  0.51865  0.96261  1.0000
  C   C32       1.0  0.98972  0.71166  0.95983  1.0000
  C   C33       1.0  0.33527  0.59947  0.03572  1.0000
  C   C34       1.0  0.07211  0.73732  0.10095  1.0000
  C   C35       1.0  0.87781  0.57292  0.96546  1.0000
  C   C36       1.0  0.01525  0.66730  0.10295  1.0000
  C   C37       1.0  0.11124  0.60881  0.02169  1.0000
  N   N4        1.0  0.20820  0.51814  0.08187  1.0000
  C   C38       1.0  0.13577  0.45653  0.06607  1.0000
  H   H33       1.0  0.13979  0.40326  0.06032  1.0000
  S   S9        1.0  0.26645  0.68795  0.98158  1.0000
  H   H34       1.0  0.12364  0.45129  0.01134  1.0000
  H   H35       1.0  0.19267  0.79775  0.06107  1.0000
  Fe  Fe4       1.0  0.33374  0.79699  0.05569  1.0000
  C   C39       1.0  0.00888  0.64762  0.91775  1.0000
  H   H36       1.0  0.03361  0.76626  0.95945  1.0000
  H   H37       1.0  0.89999  0.75466  0.03851  1.0000
  C   C40       1.0  0.34756  0.63128  0.11155  1.0000
  H   H38       1.0  0.33808  0.12655  0.34791  1.0000
  H   H39       1.0  0.14129  0.08750  0.22721  1.0000
  C   C41       1.0  0.19076  0.09721  0.17976  1.0000
  H   H40       1.0  0.07799  0.16852  0.34405  1.0000
  Fe  Fe5       1.0  0.31396  0.94367  0.16220  1.0000
  H   H41       1.0  0.91989  0.11740  0.29266  1.0000
  H   H42       1.0  0.33849  0.20281  0.27322  1.0000
  C   C42       1.0  0.24177  0.05912  0.15609  1.0000
  C   C43       1.0  0.88262  0.10044  0.34431  1.0000
  S   S10       1.0  0.23093  0.00571  0.21291  1.0000
  N   N5        1.0  0.07288  0.08468  0.38441  1.0000
  H   H43       1.0  0.02578  0.97352  0.31442  1.0000
  S   S11       1.0  0.23155  0.32897  0.27537  1.0000
  H   H44       1.0  0.00462  0.04108  0.29943  1.0000
  C   C44       1.0  0.01144  0.02532  0.34471  1.0000
  Fe  Fe6       1.0  0.31224  0.33632  0.15893  1.0000
  C   C45       1.0  0.03261  0.33647  0.18079  1.0000
  C   C46       1.0  0.09995  0.15566  0.37923  1.0000
  C   C47       1.0  0.20504  0.14963  0.14370  1.0000
  H   H45       1.0  0.16687  0.18105  0.16444  1.0000
  H   H46       1.0  0.95508  0.01406  0.38793  1.0000
  Fe  Fe7       1.0  0.99153  0.27606  0.54744  1.0000
  C   C48       1.0  0.15730  0.21274  0.41819  1.0000
  C   C49       1.0  0.89239  0.14945  0.41860  1.0000
  C   C50       1.0  0.15816  0.12494  0.46904  1.0000
  C   C51       1.0  0.26192  0.87192  0.62884  1.0000
  S   S12       1.0  0.34722  0.34112  0.41101  1.0000
  H   H47       1.0  0.32821  0.93049  0.54158  1.0000
  H   H48       1.0  0.07896  0.01289  0.43365  1.0000
  S   S13       1.0  0.97402  0.19700  0.60937  1.0000
  C   C52       1.0  0.28953  0.87735  0.55267  1.0000
  S   S14       1.0  0.96791  0.23613  0.42816  1.0000
  H   H49       1.0  0.17953  0.11320  0.50570  1.0000
  C   C53       1.0  0.18654  0.19712  0.46320  1.0000
  H   H50       1.0  0.17849  0.26899  0.41411  1.0000
  C   C54       1.0  0.10092  0.06895  0.42893  1.0000
  H   H51       1.0  0.23039  0.24131  0.49461  1.0000
  H   H52       1.0  0.90616  0.33119  0.40634  1.0000
  C   C55       1.0  0.86417  0.10733  0.82038  1.0000
  Fe  Fe8       1.0  0.08078  0.28211  0.65258  1.0000
  H   H53       1.0  0.88836  0.12728  0.76921  1.0000
  H   H54       1.0  0.98699  0.23387  0.84610  1.0000
  Fe  Fe9       1.0  0.91065  0.26543  0.71104  1.0000
  S   S15       1.0  0.17299  0.24902  0.65576  1.0000
  S   S16       1.0  0.01557  0.34468  0.75973  1.0000
  H   H55       1.0  0.33144  0.27514  0.64768  1.0000
  C   C56       1.0  0.31844  0.32478  0.68633  1.0000
  N   N6        1.0  0.88381  0.15370  0.89027  1.0000
  H   H56       1.0  0.27878  0.92102  0.67741  1.0000
  C   C57       1.0  0.24472  0.32704  0.70005  1.0000
  S   S17       1.0  0.92135  0.33938  0.64681  1.0000
  C   C58       1.0  0.31807  0.12117  0.05482  1.0000
  S   S18       1.0  0.90630  0.31895  0.13737  1.0000
  C   C59       1.0  0.30400  0.06915  0.09171  1.0000
  H   H57       1.0  0.04408  0.29556  0.12556  1.0000
  S   S19       1.0  0.29686  0.23976  0.05010  1.0000
  C   C60       1.0  0.26976  0.16295  0.08249  1.0000
  H   H58       1.0  0.86648  0.16635  0.01103  1.0000
  H   H59       1.0  0.34368  0.04014  0.07315  1.0000
  H   H60       1.0  0.95768  0.25879  0.95100  1.0000
  C   C61       1.0  0.93581  0.23132  0.89617  1.0000
  H   H61       1.0  0.90403  0.26375  0.89588  1.0000
  H   H62       1.0  0.85332  0.72988  0.34151  1.0000
  H   H63       1.0  0.41332  0.63655  0.32973  1.0000
  S   S20       1.0  0.72423  0.37006  0.23529  1.0000
  Fe  Fe10      1.0  0.75189  0.48805  0.31032  1.0000
  Fe  Fe11      1.0  0.42016  0.49269  0.22807  1.0000
  S   S21       1.0  0.41965  0.37819  0.20318  1.0000
  H   H64       1.0  0.53350  0.81919  0.17872  1.0000
  C   C62       1.0  0.43968  0.67579  0.29634  1.0000
  S   S22       1.0  0.52592  0.58899  0.19772  1.0000
  C   C63       1.0  0.67550  0.70426  0.32731  1.0000
  H   H65       1.0  0.64887  0.71149  0.29162  1.0000
  H   H66       1.0  0.52603  0.59265  0.35288  1.0000
  C   C64       1.0  0.75643  0.72618  0.31096  1.0000
  C   C65       1.0  0.53359  0.71969  0.18793  1.0000
  C   C66       1.0  0.49845  0.66698  0.22959  1.0000
  C   C67       1.0  0.44782  0.78740  0.27861  1.0000
  S   S23       1.0  0.72539  0.52500  0.23162  1.0000
  H   H67       1.0  0.79225  0.75037  0.26338  1.0000
  C   C68       1.0  0.41588  0.73672  0.32186  1.0000
  H   H68       1.0  0.60812  0.51453  0.35704  1.0000
  H   H69       1.0  0.47312  0.45186  0.34577  1.0000
  Fe  Fe12      1.0  0.84838  0.40220  0.17298  1.0000
  C   C69       1.0  0.50743  0.77945  0.21182  1.0000
  C   C70       1.0  0.79078  0.71529  0.35541  1.0000
  C   C71       1.0  0.49198  0.44180  0.38536  1.0000
  N   N7        1.0  0.63023  0.67322  0.38696  1.0000
  Fe  Fe13      1.0  0.70659  0.40858  0.15238  1.0000
  H   H70       1.0  0.37179  0.74350  0.37470  1.0000
  Fe  Fe14      1.0  0.85088  0.54835  0.17245  1.0000
  C   C72       1.0  0.83678  0.46095  0.49044  1.0000
  H   H71       1.0  0.78291  0.78102  0.58606  1.0000
  C   C73       1.0  0.59580  0.46374  0.44045  1.0000
  H   H72       1.0  0.52680  0.68706  0.39541  1.0000
  H   H73       1.0  0.76982  0.67415  0.45095  1.0000
  H   H74       1.0  0.62787  0.63830  0.47864  1.0000
  C   C74       1.0  0.66354  0.66382  0.43197  1.0000
  H   H75       1.0  0.48043  0.53993  0.57389  1.0000
  S   S24       1.0  0.57319  0.80951  0.54921  1.0000
  C   C75       1.0  0.44056  0.39175  0.42794  1.0000
  Fe  Fe15      1.0  0.45258  0.79428  0.55251  1.0000
  C   C76       1.0  0.54354  0.41596  0.48610  1.0000
  H   H76       1.0  0.82224  0.56697  0.52643  1.0000
  C   C77       1.0  0.74415  0.68419  0.41660  1.0000
  H   H77       1.0  0.78820  0.43167  0.46185  1.0000
  S   S25       1.0  0.69553  0.50126  0.43726  1.0000
  H   H78       1.0  0.51539  0.63604  0.45703  1.0000
  C   C78       1.0  0.46544  0.38010  0.48016  1.0000
  H   H79       1.0  0.56401  0.40309  0.52235  1.0000
  C   C79       1.0  0.45226  0.57204  0.62737  1.0000
  C   C80       1.0  0.54556  0.64578  0.39889  1.0000
  S   S26       1.0  0.37017  0.68066  0.50446  1.0000
  C   C81       1.0  0.85600  0.53780  0.52667  1.0000
  C   C82       1.0  0.56918  0.47726  0.39141  1.0000
  H   H80       1.0  0.69563  0.74616  0.81291  1.0000
  H   H81       1.0  0.56062  0.65087  0.66098  1.0000
  C   C83       1.0  0.72071  0.36814  0.80286  1.0000
  S   S27       1.0  0.61585  0.52083  0.65363  1.0000
  S   S28       1.0  0.79599  0.69840  0.66720  1.0000
  C   C84       1.0  0.74355  0.75741  0.69647  1.0000
  C   C85       1.0  0.38085  0.65259  0.76618  1.0000
  C   C86       1.0  0.65025  0.81260  0.79394  1.0000
  Fe  Fe16      1.0  0.67153  0.50531  0.81781  1.0000
  S   S29       1.0  0.42804  0.52776  0.82116  1.0000
  C   C87       1.0  0.69625  0.76948  0.77159  1.0000
  Fe  Fe17      1.0  0.71546  0.59936  0.71134  1.0000
  S   S30       1.0  0.56939  0.41932  0.76793  1.0000
  H   H82       1.0  0.49579  0.72315  0.78475  1.0000
  S   S31       1.0  0.64233  0.60245  0.83276  1.0000
  Fe  Fe18      1.0  0.54538  0.51670  0.77407  1.0000
  C   C88       1.0  0.74593  0.78984  0.64402  1.0000
  C   C89       1.0  0.69859  0.83188  0.66589  1.0000
  H   H83       1.0  0.43283  0.38554  0.71056  1.0000
  S   S32       1.0  0.75275  0.50879  0.70136  1.0000
  C   C90       1.0  0.46160  0.67510  0.74580  1.0000
  Fe  Fe19      1.0  0.64800  0.42971  0.65140  1.0000
  H   H84       1.0  0.61352  0.82150  0.85217  1.0000
  C   C91       1.0  0.49782  0.63457  0.67615  1.0000
  H   H85       1.0  0.71239  0.38614  0.76207  1.0000
  C   C92       1.0  0.71239  0.40833  0.88215  1.0000
  C   C93       1.0  0.65010  0.84246  0.74065  1.0000
  C   C94       1.0  0.37574  0.38711  0.72206  1.0000
  N   N8        1.0  0.37305  0.55103  0.64733  1.0000
  C   C95       1.0  0.72150  0.38345  0.93465  1.0000
  S   S33       1.0  0.69598  0.49231  0.91509  1.0000
  C   C96       1.0  0.51884  0.43061  0.01235  1.0000
  H   H86       1.0  0.74881  0.64118  0.02903  1.0000
  H   H87       1.0  0.37893  0.61998  0.98800  1.0000
  H   H88       1.0  0.54682  0.54822  0.03468  1.0000
  H   H89       1.0  0.40151  0.67594  0.12307  1.0000
  H   H90       1.0  0.55934  0.44007  0.04480  1.0000
  C   C97       1.0  0.51151  0.49208  0.00745  1.0000
  C   C98       1.0  0.78176  0.63065  0.05702  1.0000
  S   S34       1.0  0.83025  0.43451  0.08461  1.0000
  S   S35       1.0  0.44803  0.82681  0.08221  1.0000
  H   H91       1.0  0.71367  0.41382  0.99619  1.0000
  H   H92       1.0  0.83490  0.51856  0.96759  1.0000
  C   C99       1.0  0.46034  0.48059  0.96541  1.0000
  N   N9        1.0  0.47814  0.35966  0.97415  1.0000
  H   H93       1.0  0.74831  0.57429  0.06567  1.0000
  C   C100      1.0  0.41695  0.40797  0.92884  1.0000
  H   H94       1.0  0.78551  0.67132  0.11591  1.0000
  H   H95       1.0  0.45534  0.52792  0.96020  1.0000
  H   H96       1.0  0.37743  0.39854  0.89542  1.0000
  H   H97       1.0  0.57943  0.71327  0.13625  1.0000
  C   C101      1.0  0.42684  0.34772  0.93359  1.0000
  C   C102      1.0  0.64089  0.07269  0.23390  1.0000
  C   C103      1.0  0.39828  0.20194  0.24437  1.0000
  C   C104      1.0  0.69980  0.12279  0.34204  1.0000
  S   S36       1.0  0.42562  0.98679  0.19904  1.0000
  C   C105      1.0  0.59688  0.00581  0.25366  1.0000
  S   S37       1.0  0.41003  0.85817  0.30775  1.0000
  N   N10       1.0  0.43661  0.20837  0.30077  1.0000
  H   H98       1.0  0.81914  0.99026  0.27937  1.0000
  N   N11       1.0  0.69137  0.13026  0.27818  1.0000
  C   C106      1.0  0.65574  0.05709  0.36403  1.0000
  Fe  Fe20      1.0  0.39278  0.87251  0.20664  1.0000
  H   H99       1.0  0.39503  0.14875  0.19717  1.0000
  C   C107      1.0  0.60435  0.99817  0.31929  1.0000
  C   C108      1.0  0.39733  0.16456  0.35007  1.0000
  H   H100      1.0  0.63441  0.07793  0.18280  1.0000
  H   H101      1.0  0.43004  0.24889  0.21809  1.0000
  H   H102      1.0  0.55716  0.96002  0.21842  1.0000
  H   H103      1.0  0.57069  0.94653  0.33533  1.0000
  H   H104      1.0  0.60720  0.30057  0.35862  1.0000
  H   H105      1.0  0.54262  0.29061  0.26310  1.0000
  C   C109      1.0  0.51181  0.25538  0.30186  1.0000
  C   C110      1.0  0.73868  0.19971  0.25639  1.0000
  C   C111      1.0  0.82620  0.02850  0.33682  1.0000
  C   C112      1.0  0.54902  0.26061  0.35487  1.0000
  H   H106      1.0  0.80051  0.20382  0.23337  1.0000
  H   H107      1.0  0.73501  0.24898  0.30795  1.0000
  H   H108      1.0  0.71924  0.20296  0.21054  1.0000
  H   H109      1.0  0.74094  0.16760  0.37634  1.0000
  C   C113      1.0  0.77867  0.00616  0.40363  1.0000
  H   H110      1.0  0.57731  0.07449  0.55501  1.0000
  S   S38       1.0  0.60521  0.98986  0.62103  1.0000
  S   S39       1.0  0.49228  0.88341  0.49555  1.0000
  Fe  Fe21      1.0  0.48239  0.96091  0.61709  1.0000
  C   C114      1.0  0.78738  0.05601  0.47770  1.0000
  H   H111      1.0  0.66181  0.05139  0.41506  1.0000
  H   H112      1.0  0.40114  0.13489  0.44413  1.0000
  C   C115      1.0  0.84388  0.12762  0.48520  1.0000
  C   C116      1.0  0.59248  0.24947  0.57620  1.0000
  C   C117      1.0  0.56080  0.12266  0.57398  1.0000
  H   H113      1.0  0.67086  0.18848  0.51680  1.0000
  Fe  Fe22      1.0  0.61217  0.90548  0.50210  1.0000
  H   H114      1.0  0.75180  0.03913  0.52941  1.0000
  C   C118      1.0  0.61333  0.18671  0.55135  1.0000
  C   C119      1.0  0.50894  0.21728  0.40648  1.0000
  H   H115      1.0  0.53644  0.22263  0.44935  1.0000
  C   C120      1.0  0.43274  0.16859  0.40398  1.0000
  C   C121      1.0  0.51857  0.24769  0.62228  1.0000
  H   H116      1.0  0.80438  0.31860  0.43133  1.0000
  C   C122      1.0  0.48758  0.12150  0.62174  1.0000
  S   S40       1.0  0.70701  0.91690  0.39363  1.0000
  H   H117      1.0  0.70006  0.85642  0.62514  1.0000
  H   H118      1.0  0.42549  0.34126  0.51343  1.0000
  H   H119      1.0  0.50157  0.29540  0.63967  1.0000
  H   H120      1.0  0.84962  0.16593  0.54279  1.0000
  S   S41       1.0  0.65854  0.32958  0.54851  1.0000
  H   H121      1.0  0.84512  0.31393  0.49815  1.0000
  C   C123      1.0  0.85713  0.34272  0.45496  1.0000
  C   C124      1.0  0.77778  0.00914  0.88046  1.0000
  C   C125      1.0  0.50371  0.12141  0.81187  1.0000
  H   H122      1.0  0.62764  0.16099  0.79364  1.0000
  H   H123      1.0  0.40929  0.18288  0.68165  1.0000
  C   C126      1.0  0.64645  0.07878  0.85493  1.0000
  H   H124      1.0  0.79389  0.99815  0.75939  1.0000
  H   H125      1.0  0.37923  0.06882  0.83537  1.0000
  C   C127      1.0  0.50401  0.02507  0.87725  1.0000
  C   C128      1.0  0.74371  0.30628  0.77535  1.0000
  C   C129      1.0  0.81087  0.03438  0.81438  1.0000
  C   C130      1.0  0.43336  0.02235  0.87317  1.0000
  N   N12       1.0  0.57257  0.07518  0.84978  1.0000
  C   C131      1.0  0.46613  0.18376  0.64524  1.0000
  H   H126      1.0  0.68441  0.06856  0.79552  1.0000
  H   H127      1.0  0.50460  0.15826  0.78445  1.0000
  S   S42       1.0  0.43367  0.87024  0.67406  1.0000
  S   S43       1.0  0.58828  0.89214  0.76877  1.0000
  C   C132      1.0  0.75748  0.28428  0.82730  1.0000
  Fe  Fe23      1.0  0.55753  0.89190  0.66720  1.0000
  C   C133      1.0  0.57313  0.12266  0.81705  1.0000
  H   H128      1.0  0.73461  0.95358  0.87742  1.0000
  S   S44       1.0  0.80078  0.21705  0.79089  1.0000
  H   H129      1.0  0.75272  0.27680  0.71352  1.0000
  C   C134      1.0  0.43340  0.07093  0.84020  1.0000
  S   S45       1.0  0.42367  0.04343  0.65435  1.0000
  H   H130      1.0  0.63844  0.03605  0.88034  1.0000
  S   S46       1.0  0.36617  0.90570  0.03428  1.0000
  H   H131      1.0  0.47901  0.18894  0.07529  1.0000
  H   H132      1.0  0.39313  0.29141  0.90477  1.0000
  H   H133      1.0  0.45714  0.24265  0.94068  1.0000
  H   H134      1.0  0.55317  0.30412  0.95646  1.0000
  C   C135      1.0  0.53118  0.18090  0.07034  1.0000
  C   C136      1.0  0.52967  0.10937  0.05728  1.0000
  H   H135      1.0  0.72118  0.27867  0.07697  1.0000
  H   H136      1.0  0.50388  0.98659  0.90206  1.0000
  C   C137      1.0  0.59979  0.24231  0.07926  1.0000
  H   H137      1.0  0.77204  0.03740  0.00300  1.0000
  C   C138      1.0  0.66749  0.23177  0.07193  1.0000
  S   S47       1.0  0.59987  0.33262  0.10565  1.0000
  H   H138      1.0  0.67572  0.13461  0.89239  1.0000
  S   S48       1.0  0.59682  0.00967  0.03050  1.0000
  C   C139      1.0  0.59749  0.09904  0.04997  1.0000
  H   H139      1.0  0.36877  0.13222  0.00824  1.0000
  Fe  Fe24      1.0  0.47525  0.93946  0.07288  1.0000
  H   H140      1.0  0.47639  0.06213  0.05182  1.0000
  H   H141      1.0  0.71850  0.15296  0.05310  1.0000
  C   C140      1.0  0.66632  0.16027  0.05735  1.0000
  C   C141      1.0  0.79892  0.05639  0.95114  1.0000
  C   C142      1.0  0.49048  0.29675  0.97699  1.0000
  H   H142      1.0  0.47088  0.29394  0.03806  1.0000
  H   H143      1.0  0.75426  0.30399  0.94748  1.0000
  C   C143      1.0  0.74384  0.32112  0.90727  1.0000
  H   H144      1.0  0.37914  0.98254  0.89502  1.0000
  C   C144      1.0  0.85212  0.12912  0.95520  1.0000
