#------------------------------------------------------------------------------#
# simulation settings
#------------------------------------------------------------------------------#

##### simulation variables

variable        seed 	equal  301360
variable        T       equal  300	    #K
variable        p       equal  0.0 	#bar
variable        damp_T  equal  100 		  	#K
variable        damp_P  equal  1000.0	  	#bar
variable        dT      equal  1.0 		 	#fs
variable        kb      equal  0.0019872041

## system setup ##

units           real
atom_style      full
boundary        p p p

pair_style      lj/cut/coul/long 12.500
bond_style      harmonic
angle_style     hybrid fourier cosine/periodic
dihedral_style  harmonic
improper_style  fourier
kspace_style 	ewald 0.000001

dielectric      1.0
pair_modify     tail yes mix arithmetic
special_bonds   lj/coul 0.0 0.0 1.0
read_data       data.sow-4c_FeS-2c_B_S_new 				extra/bond/per/atom 40 				extra/angle/per/atom 40 				extra/dihedral/per/atom 40 				extra/improper/per/atom 40 				extra/special/per/atom 40
Reading data file ...
  triclinic box = (0 0 0) to (41.341 26.893 26.085) with tilt (0.004694 0 0)
  reading atoms ...
  256 atoms
  scanning bonds ...
  scanning angles ...
  scanning dihedrals ...
  scanning impropers ...
  reading bonds ...
  320 bonds
  reading angles ...
  608 angles
  reading dihedrals ...
  448 dihedrals
  reading impropers ...
  288 impropers
Finding 1-2 1-3 1-4 neighbors ...
     4 = max # of 1-2 neighbors
     9 = max # of 1-3 neighbors
    49 = max # of special neighbors

include			emin_sow-4c_FeS-2c_B_S.param
### Parameters for Equilibration ###

### Parameters for MOF ###

mass 1 55.845000000
mass 2 32.065000000
mass 3 12.010700000
mass 4 1.007940000

pair_coeff 1 1 0.013000 2.594297
pair_coeff 2 2 0.274000 3.594776
pair_coeff 3 3 0.105000 3.430851
pair_coeff 4 4 0.044000 2.571134

bond_coeff 1 192.938150 2.244314
bond_coeff 2 462.655054 1.379256
bond_coeff 3 357.440381 1.081418
bond_coeff 4 320.755144 1.749010

angle_coeff 1 fourier 131.427607 0.343737 0.374972 0.281246
angle_coeff 2 fourier 106.220186 0.343737 0.374972 0.281246
angle_coeff 3 cosine/periodic 111.297508 -1 3
angle_coeff 4 cosine/periodic 57.289016 -1 3
angle_coeff 5 cosine/periodic 105.943006 -1 3
angle_coeff 6 fourier 115.321348 0.343737 0.374972 0.281246

dihedral_coeff 1 3.368555 -1 2
dihedral_coeff 2 1.976424 1 2

improper_coeff 1 2.000000 1.000000 -1.000000 0.000000 0

### Parameters for Molecule ###

mass 5 14.006700000
mass 6 12.010700000
mass 7 1.007940000

pair_coeff 5 5 0.069000 3.260689
pair_coeff 6 6 0.105000 3.430851
pair_coeff 7 7 0.044000 2.571134

bond_coeff 5 528.634538 1.451071
bond_coeff 6 331.069389 1.109401

angle_coeff 7 fourier 260.869388 0.317506 0.313225 0.272502
angle_coeff 8 fourier 169.780468 0.343737 0.374972 0.281246
angle_coeff 9 fourier 75.498766 0.343737 0.374972 0.281246

dihedral_coeff 3 0.054250 1 3

reset_timestep  0
fix             f0 all box/relax aniso 0 vmax 0.001
thermo          10
thermo_style    custom step lx ly lz press pxx pyy pzz
min_style       cg
minimize        1e-10 1e-10 100000 100000
Ewald initialization ...
  G vector (1/distance) = 0.23205454
  estimated absolute RMS force accuracy = 0.0003686707
  estimated relative force accuracy = 1.1102409e-06
  KSpace vectors: actual max1d max3d = 739 9 3429
                  kxmax kymax kzmax  = 9 6 6
Generated 21 of 21 mixed pair_coeff terms from arithmetic mixing rule
  update every 1 steps, delay 0 steps, check yes
Step           Lx             Ly             Lz           Press           Pxx            Pyy            Pzz
0   41.341         26.893         26.085        -57525.822     -72005.8       -31255.684     -69315.983
Loop time of 0.342094 on 1 procs for 579 steps with 256 atoms

Minimization stats:
  Stopping criterion = energy tolerance
  Energy initial, next-to-last, final =
  Force two-norm initial, final = 44551.007 197.09357
  Force max component initial, final = 30454.708 113.51499
  Final line search alpha, max atom move = 6.1962112e-13 7.0336283e-11
  Iterations, force evaluations = 579 606

unfix           f0

#------------------------------------------------------------------------------#
# deposit cations and minimization
#------------------------------------------------------------------------------#
reset_timestep  0

variable		a equal lx-3
variable 		b equal ly-3
variable 		c equal lz-3
variable		aa equal xy
variable 		bb equal xz
variable 		cc equal yz

region 			box prism 3 32.8019619067756 3 20.8017422026223 3 19.0789873674712 0.00415444085446433 0 0

variable		n_cation equal 16

##### create and deposit the cation

molecule 		TMA TMA.txt offset 4 4 6 2 1
Read molecule template TMA:
  1 molecules
  0 fragments
  17 atoms with max type 7
  16 bonds with max type 6
  30 angles with max type 9
  36 dihedrals with max type 3
  0 impropers with max type 0
fix 			DEPOSIT all deposit 16 0 1 301360 mol TMA region box near 1

run 			160
Ewald initialization ...
  G vector (1/distance) = 0.23501899
  estimated absolute RMS force accuracy = 0.00037441145
  estimated relative force accuracy = 1.127529e-06
  KSpace vectors: actual max1d max3d = 602 7 1687
                  kxmax kymax kzmax  = 7 6 5
Generated 21 of 21 mixed pair_coeff terms from arithmetic mixing rule
Step           Lx             Ly             Lz           Press           Pxx            Pyy            Pzz
0   35.801962      23.801742      22.078987      183.92469      14.937326      354.16748      182.66926
Loop time of 0.184049 on 1 procs for 160 steps with 528 atoms

unfix 			DEPOSIT

reset_timestep  0
fix             f0 all box/relax aniso 0 vmax 0.001
thermo          10
thermo_style    custom step lx ly lz press pxx pyy pzz
min_style       cg
minimize        1e-10 1e-10 100000 100000
Ewald initialization ...
  G vector (1/distance) = 0.23403332
  estimated absolute RMS force accuracy = 0.0003637064
  estimated relative force accuracy = 1.095291e-06
  KSpace vectors: actual max1d max3d = 602 7 1687
                  kxmax kymax kzmax  = 7 6 5
Generated 21 of 21 mixed pair_coeff terms from arithmetic mixing rule
Step           Lx             Ly             Lz           Press           Pxx            Pyy            Pzz
0   35.801962      23.801742      22.078987      1128752.3      1333641.8      667536.29      1385078.9
Averages over the last 494 of 988 rows, steps 4940 to 9869:
Lx Ly Lz Press Pxx Pyy Pzz
27.418 17.9553 18.146 -5.90181 -7.00076 7.5388 -18.2435
Loop time of 33.5712 on 1 procs for 9869 steps with 528 atoms

Minimization stats:
  Stopping criterion = linesearch alpha is zero
  Energy initial, next-to-last, final =
  Force two-norm initial, final = 798460.53 34.245496
  Force max component initial, final = 380053.85 21.544484
  Final line search alpha, max atom move = 6.2111971e-12 1.3381703e-10
  Iterations, force evaluations = 9869 17913

unfix           f0

##### NVT Dynamics

reset_timestep  0

velocity 		all create 300 300

fix		 		f1 all nve
fix 			f2 all langevin 300 300 100 301360 zero yes
compute 		c1 all temp/com
fix_modify		f2 temp c1

thermo_style 	custom step pe ke etotal evdwl ecoul epair emol econserve density vol
thermo 	 	 	5000

run 		 	50000
Ewald initialization ...
  G vector (1/distance) = 0.23956966
  estimated absolute RMS force accuracy = 0.00038043783
  estimated relative force accuracy = 1.1456772e-06
  KSpace vectors: actual max1d max3d = 384 7 1687
                  kxmax kymax kzmax  = 7 4 5
Generated 21 of 21 mixed pair_coeff terms from arithmetic mixing rule
Step         PotEng         KinEng         TotEng         E_vdwl         E_coul         E_pair         E_mol        Econserve       Density         Volume
0  -370.3434       471.26607      100.92266      21.009826     -1068.586      -2301.0213      1930.6779      100.92266      1.2502733      8291.6519
Averages over the last 6 of 11 rows, steps 25000 to 50000:
PotEng KinEng TotEng E_vdwl E_coul E_pair E_mol Econserve Density Volume
29.6948 485.838 515.533 60.4287 -1082.3 -2292.34 2322.04 515.533 1.25027 8291.65
Loop time of 86.4257 on 1 procs for 50000 steps with 528 atoms

unfix 		 	f1
unfix 		 	f2

#------------------------------------------------------------------------------#
# final equilibration and save data file
#------------------------------------------------------------------------------#
### save volume
reset_timestep  0
min_style 		cg
minimize		1e-15 1e-15 100000 100000
Ewald initialization ...
  G vector (1/distance) = 0.23956966
  estimated absolute RMS force accuracy = 0.00038043783
  estimated relative force accuracy = 1.1456772e-06
  KSpace vectors: actual max1d max3d = 384 7 1687
                  kxmax kymax kzmax  = 7 4 5
Generated 21 of 21 mixed pair_coeff terms from arithmetic mixing rule
Step         PotEng         KinEng         TotEng         E_vdwl         E_coul         E_pair         E_mol        Econserve       Density         Volume
0   44.417256      496.08093      540.49818      56.297863     -1085.3467     -2301.8867      2346.304       540.49818      1.2502733      8291.6519
Loop time of 1.99832 on 1 procs for 425 steps with 528 atoms

Minimization stats:
  Stopping criterion = linesearch alpha is zero
  Energy initial, next-to-last, final =
  Force two-norm initial, final = 891.7263 1.257066
  Force max component initial, final = 110.83061 0.28897405
  Final line search alpha, max atom move = 5.6876104e-09 1.6435718e-09
  Iterations, force evaluations = 425 897

reset_timestep  0
fix             f0 all box/relax tri 0 vmax 0.001
thermo          10
thermo_style    custom step lx ly lz press pxx pyy pzz
min_style       cg
minimize        1e-15 1e-15 100000 100000
Ewald initialization ...
  G vector (1/distance) = 0.23956966
  estimated absolute RMS force accuracy = 0.00038043783
  estimated relative force accuracy = 1.1456772e-06
  KSpace vectors: actual max1d max3d = 384 7 1687
                  kxmax kymax kzmax  = 7 4 5
Generated 21 of 21 mixed pair_coeff terms from arithmetic mixing rule
Step           Lx             Ly             Lz           Press           Pxx            Pyy            Pzz
0   27.150282      17.26277       17.691156      1387.772       1889.2415      1289.5481      984.52634
Loop time of 0.747176 on 1 procs for 135 steps with 528 atoms

Minimization stats:
  Stopping criterion = linesearch alpha is zero
  Energy initial, next-to-last, final =
  Force two-norm initial, final = 373.39663 48.2677
  Force max component initial, final = 210.22953 31.46316
  Final line search alpha, max atom move = 3.0516714e-12 9.6015226e-11
  Iterations, force evaluations = 135 314

unfix           f0

min_style 		cg
minimize		1e-15 1e-15 100000 100000
Ewald initialization ...
  G vector (1/distance) = 0.23966883
  estimated absolute RMS force accuracy = 0.00036873748
  estimated relative force accuracy = 1.110442e-06
  KSpace vectors: actual max1d max3d = 383 7 1687
                  kxmax kymax kzmax  = 7 4 5
Generated 21 of 21 mixed pair_coeff terms from arithmetic mixing rule
Step           Lx             Ly             Lz           Press           Pxx            Pyy            Pzz
135   27.131769      17.111256      17.596691      2904.5795      2763.166       3214.4073      2736.1652
Loop time of 1.1459 on 1 procs for 231 steps with 528 atoms

Minimization stats:
  Stopping criterion = linesearch alpha is zero
  Energy initial, next-to-last, final =
  Force two-norm initial, final = 14.388595 1.0095511
  Force max component initial, final = 7.5585107 0.19647128
  Final line search alpha, max atom move = 1.0738876e-08 2.1098808e-09
  Iterations, force evaluations = 231 507

variable 		volume equal vol
The volume of sow-4c_FeS-2c_B_S: 8169.41639191474

write_data 		data.emin_sow-4c_FeS-2c_B_S_TMA pair ij
System init for write_data ...
Ewald initialization ...
  G vector (1/distance) = 0.23966883
  estimated absolute RMS force accuracy = 0.00036873748
  estimated relative force accuracy = 1.110442e-06
  KSpace vectors: actual max1d max3d = 383 7 1687
                  kxmax kymax kzmax  = 7 4 5
Generated 21 of 21 mixed pair_coeff terms from arithmetic mixing rule

### For strain energy
reset_timestep  0

fix				f1 all nve
fix 			f2 all langevin 0 0 100 301360

thermo_style 	custom step pe ke etotal evdwl ecoul epair emol econserve density vol
thermo 	 	 	5000

variable		strain equal pe
fix 			STRAIN all ave/time 1 100 100 v_strain file STRAIN.dat

run 			100
Ewald initialization ...
  G vector (1/distance) = 0.23966883
  estimated absolute RMS force accuracy = 0.00036873748
  estimated relative force accuracy = 1.110442e-06
  KSpace vectors: actual max1d max3d = 383 7 1687
                  kxmax kymax kzmax  = 7 4 5
Generated 21 of 21 mixed pair_coeff terms from arithmetic mixing rule
Step         PotEng         KinEng         TotEng         E_vdwl         E_coul         E_pair         E_mol        Econserve       Density         Volume
0  -466.70428      496.08093      29.37665       5.3241249     -1103.086      -2373.094       1906.3897      29.37665       1.2689806      8169.4164
Loop time of 0.227853 on 1 procs for 100 steps with 528 atoms

unfix			f1
unfix			f2
unfix			STRAIN

### For potential energy
reset_timestep	0
velocity 		all create 300 300
fix 		 	f1 all nve
fix 		 	f2 all langevin 300 300 100 301360 zero yes
fix_modify 		f2 temp c1
thermo_style 	custom step pe ke etotal evdwl ecoul epair emol econserve density vol
thermo 	 	 	5000
variable 	 	potential equal pe
fix				PE all ave/time 1 50000 50000 v_potential file PE.dat

run				50000
Ewald initialization ...
  G vector (1/distance) = 0.23966883
  estimated absolute RMS force accuracy = 0.00036873748
  estimated relative force accuracy = 1.110442e-06
  KSpace vectors: actual max1d max3d = 383 7 1687
                  kxmax kymax kzmax  = 7 4 5
Generated 21 of 21 mixed pair_coeff terms from arithmetic mixing rule
Step         PotEng         KinEng         TotEng         E_vdwl         E_coul         E_pair         E_mol        Econserve       Density         Volume
0  -360.46427      471.26607      110.8018       19.384828     -1102.8062     -2358.4214      1997.9571      110.8018       1.2689806      8169.4164
Averages over the last 6 of 11 rows, steps 25000 to 50000:
PotEng KinEng TotEng E_vdwl E_coul E_pair E_mol Econserve Density Volume
33.7347 479.979 513.714 66.7965 -1078.93 -2280.61 2314.35 513.714 1.26898 8169.42
Loop time of 118.819 on 1 procs for 50000 steps with 528 atoms

unfix			f1
unfix			f2
unfix			PE
