# Generated by pormake.
# Topology sow, (4)-cn, num edge types: 1
# Building blocks:
#     Node 0, Type 0, BuildingBlock: 4c_FeS, # of connection points: 4
#     Node 1, Type 0, BuildingBlock: 4c_FeS, # of connection points: 4
#     Node 2, Type 0, BuildingBlock: 4c_FeS, # of connection points: 4
#     Node 3, Type 0, BuildingBlock: 4c_FeS, # of connection points: 4
#     Node 4, Type 0, BuildingBlock: 4c_FeS, # of connection points: 4
#     Node 5, Type 0, BuildingBlock: 4c_FeS, # of connection points: 4
#     Node 6, Type 0, BuildingBlock: 4c_FeS, # of connection points: 4
#     Node 7, Type 0, BuildingBlock: 4c_FeS, # of connection points: 4
#     Edge 8, Type (np.int64(0), np.int64(0)), BuildingBlock: 2c_B_S, # of connection points: 2
#     Edge 9, Type (np.int64(0), np.int64(0)), BuildingBlock: 2c_B_S, # of connection points: 2
#     Edge 10, Type (np.int64(0), np.int64(0)), BuildingBlock: 2c_B_S, # of connection points: 2
#     Edge 11, Type (np.int64(0), np.int64(0)), BuildingBlock: 2c_B_S, # of connection points: 2
#     Edge 12, Type (np.int64(0), np.int64(0)), BuildingBlock: 2c_B_S, # of connection points: 2
#     Edge 13, Type (np.int64(0), np.int64(0)), BuildingBlock: 2c_B_S, # of connection points: 2
#     Edge 14, Type (np.int64(0), np.int64(0)), BuildingBlock: 2c_B_S, # of connection points: 2
#     Edge 15, Type (np.int64(0), np.int64(0)), BuildingBlock: 2c_B_S, # of connection points: 2
#     Edge 16, Type (np.int64(0), np.int64(0)), BuildingBlock: 2c_B_S, # of connection points: 2
#     Edge 17, Type (np.int64(0), np.int64(0)), BuildingBlock: 2c_B_S, # of connection points: 2
#     Edge 18, Type (np.int64(0), np.int64(0)), BuildingBlock: 2c_B_S, # of connection points: 2
#     Edge 19, Type (np.int64(0), np.int64(0)), BuildingBlock: 2c_B_S, # of connection points: 2
#     Edge 20, Type (np.int64(0), np.int64(0)), BuildingBlock: 2c_B_S, # of connection points: 2
#     Edge 21, Type (np.int64(0), np.int64(0)), BuildingBlock: 2c_B_S, # of connection points: 2
#     Edge 22, Type (np.int64(0), np.int64(0)), BuildingBlock: 2c_B_S, # of connection points: 2
#     Edge 23, Type (np.int64(0), np.int64(0)), BuildingBlock: 2c_B_S, # of connection points: 2
# Relax obj value: 0.211
# Max RMSD: 0.238
# Mean RMSD: 0.238
data_sow-4c_FeS-2c_B_S
_symmetry_space_group_name_H-M    P1
_symmetry_Int_Tables_number       1
_symmetry_cell_setting            triclinic
loop_
_symmetry_equiv_pos_as_xyz
'x, y, z'
_cell_length_a     41.341
_cell_length_b     26.893
_cell_length_c     26.085
_cell_angle_alpha  90.000
_cell_angle_beta   90.000
_cell_angle_gamma  89.990
loop_
_atom_site_label
_atom_site_type_symbol
_atom_site_fract_x
_atom_site_fract_y
_atom_site_fract_z
_atom_type_partial_charge
Fe0 Fe 0.89541 0.18513 0.43250 0.24910
S1 S 0.91744 0.25141 0.47564 -0.12420
Fe2 Fe 0.85158 0.23344 0.36976 0.24910
S3 S 0.86013 0.31458 0.39360 -0.12420
Fe4 Fe 0.91021 0.27766 0.39266 0.24910
Fe5 Fe 0.86327 0.26862 0.46763 0.24910
S6 S 0.90193 0.20522 0.34793 -0.12420
S7 S 0.84095 0.19350 0.44531 -0.12420
Fe8 Fe 0.85158 0.76660 0.86979 0.24910
S9 S 0.86014 0.68546 0.89364 -0.12420
Fe10 Fe 0.89540 0.81492 0.93254 0.24910
S11 S 0.91744 0.74864 0.97568 -0.12420
Fe12 Fe 0.91022 0.72238 0.89270 0.24910
Fe13 Fe 0.86327 0.73142 0.96767 0.24910
S14 S 0.90192 0.79481 0.84797 -0.12420
S15 S 0.84094 0.80655 0.94534 -0.12420
Fe16 Fe 0.41022 0.22238 0.60730 0.24910
S17 S 0.40214 0.29470 0.65231 -0.12420
Fe18 Fe 0.36327 0.23142 0.53232 0.24910
S19 S 0.34076 0.30652 0.55429 -0.12420
Fe20 Fe 0.39540 0.31491 0.56746 0.24910
Fe21 Fe 0.35158 0.26660 0.63020 0.24910
S22 S 0.41727 0.24835 0.52455 -0.12420
S23 S 0.36034 0.18560 0.60604 -0.12420
Fe24 Fe 0.64842 0.26656 0.86976 0.24910
S25 S 0.63988 0.18542 0.89360 -0.12420
Fe26 Fe 0.60459 0.31487 0.93250 0.24910
S27 S 0.58256 0.24860 0.97565 -0.12420
Fe28 Fe 0.63673 0.23138 0.96763 0.24910
Fe29 Fe 0.58979 0.22234 0.89266 0.24910
S30 S 0.65905 0.30650 0.94531 -0.12420
S31 S 0.59807 0.29477 0.84793 -0.12420
Fe32 Fe 0.13673 0.26858 0.03232 0.24910
S33 S 0.15925 0.19349 0.05429 -0.12420
Fe34 Fe 0.08978 0.27762 0.10730 0.24910
S35 S 0.09787 0.20530 0.15232 -0.12420
Fe36 Fe 0.14842 0.23340 0.13020 0.24910
Fe37 Fe 0.10460 0.18509 0.06745 0.24910
S38 S 0.13966 0.31440 0.10604 -0.12420
S39 S 0.08273 0.25165 0.02455 -0.12420
Fe40 Fe 0.60460 0.68509 0.43254 0.24910
S41 S 0.58256 0.75136 0.47568 -0.12420
Fe42 Fe 0.64842 0.73340 0.36979 0.24910
S43 S 0.63986 0.81454 0.39365 -0.12420
Fe44 Fe 0.63673 0.76858 0.46767 0.24910
Fe45 Fe 0.58978 0.77762 0.39270 0.24910
S46 S 0.65906 0.69345 0.44534 -0.12420
S47 S 0.59808 0.70519 0.34797 -0.12420
Fe48 Fe 0.36325 0.76861 0.03238 0.24910
S49 S 0.34075 0.69351 0.05435 -0.12420
Fe50 Fe 0.41020 0.77764 0.10735 0.24910
S51 S 0.40213 0.70532 0.15237 -0.12420
Fe52 Fe 0.39540 0.68511 0.06751 0.24910
Fe53 Fe 0.35156 0.73343 0.13026 0.24910
S54 S 0.41725 0.75167 0.02461 -0.12420
S55 S 0.36032 0.81443 0.10611 -0.12420
Fe56 Fe 0.08980 0.72236 0.60735 0.24910
S57 S 0.09787 0.79468 0.65238 -0.12420
Fe58 Fe 0.13675 0.73139 0.53238 0.24910
S59 S 0.15926 0.80648 0.55435 -0.12420
Fe60 Fe 0.14843 0.76657 0.63026 0.24910
Fe61 Fe 0.10460 0.81489 0.56751 0.24910
S62 S 0.13968 0.68557 0.60611 -0.12420
S63 S 0.08275 0.74833 0.52461 -0.12420
C64 C 0.77216 0.26276 0.72538 -0.16330
C65 C 0.73550 0.26286 0.71489 0.22060
C66 C 0.72286 0.26958 0.65979 -0.16330
C67 C 0.74688 0.27620 0.61518 -0.16330
C68 C 0.78354 0.27609 0.62567 0.22060
C69 C 0.79618 0.26937 0.68077 -0.16330
H70 H 0.82165 0.26930 0.68806 0.08830
H71 H 0.78095 0.25809 0.76367 0.08830
H72 H 0.69739 0.26965 0.65250 0.08830
S73 S 0.80963 0.28266 0.58105 -0.69550
S74 S 0.70994 0.25574 0.76505 -0.69550
H75 H 0.73810 0.28087 0.57690 0.08830
C76 C 0.74831 0.71768 0.12139 -0.16330
C77 C 0.78497 0.71778 0.13189 0.22060
C78 C 0.79761 0.72447 0.18699 -0.16330
C79 C 0.77359 0.73107 0.23160 -0.16330
C80 C 0.73693 0.73098 0.22111 0.22060
C81 C 0.72429 0.72428 0.16600 -0.16330
H82 H 0.69882 0.72421 0.15871 0.08830
H83 H 0.73953 0.71303 0.08311 0.08830
H84 H 0.82308 0.72454 0.19428 0.08830
S85 S 0.71083 0.73753 0.26574 -0.69550
S86 S 0.81053 0.71067 0.08172 -0.69550
H87 H 0.78237 0.73573 0.26989 0.08830
C88 C 0.27222 0.23173 0.27381 -0.16330
C89 C 0.23580 0.23745 0.28471 0.22060
C90 C 0.22332 0.23655 0.34033 -0.16330
C91 C 0.24726 0.22993 0.38504 -0.16330
C92 C 0.28368 0.22421 0.37414 0.22060
C93 C 0.29616 0.22511 0.31852 -0.16330
H94 H 0.32146 0.22113 0.31094 0.08830
H95 H 0.28089 0.23236 0.23516 0.08830
H96 H 0.19801 0.24053 0.34790 0.08830
S97 S 0.30969 0.21735 0.41884 -0.69550
S98 S 0.21030 0.24438 0.23444 -0.69550
H99 H 0.23859 0.22930 0.42368 0.08830
C100 C 0.70515 0.23663 0.18140 -0.16330
C101 C 0.71704 0.21694 0.12927 0.22060
C102 C 0.75299 0.20385 0.12169 -0.16330
C103 C 0.77705 0.21045 0.16625 -0.16330
C104 C 0.76515 0.23014 0.21839 0.22060
C105 C 0.72920 0.24323 0.22596 -0.16330
H106 H 0.72094 0.25691 0.26219 0.08830
H107 H 0.68017 0.24572 0.18667 0.08830
H108 H 0.76126 0.19017 0.08547 0.08830
S109 S 0.78889 0.23767 0.26606 -0.69550
S110 S 0.68983 0.21049 0.08123 -0.69550
H111 H 0.80203 0.20136 0.16099 0.08830
C112 C 0.25137 0.27013 0.87968 -0.16330
C113 C 0.21479 0.27305 0.86892 0.22060
C114 C 0.20230 0.27202 0.81331 -0.16330
C115 C 0.22639 0.26807 0.76846 -0.16330
C116 C 0.26297 0.26516 0.77923 0.22060
C117 C 0.27546 0.26619 0.83484 -0.16330
H118 H 0.30087 0.26416 0.84232 0.08830
H119 H 0.26004 0.27085 0.91832 0.08830
H120 H 0.17688 0.27405 0.80583 0.08830
S121 S 0.28912 0.26090 0.73439 -0.69550
S122 S 0.18916 0.27762 0.91931 -0.69550
H123 H 0.21771 0.26736 0.72982 0.08830
C124 C 0.77473 0.77242 0.66374 -0.16330
C125 C 0.76198 0.76235 0.71824 0.22060
C126 C 0.72531 0.75891 0.72799 -0.16330
C127 C 0.70139 0.76554 0.68325 -0.16330
C128 C 0.71414 0.77560 0.62876 0.22060
C129 C 0.75081 0.77904 0.61900 -0.16330
H130 H 0.75966 0.78603 0.58114 0.08830
H131 H 0.80021 0.77481 0.65696 0.08830
H132 H 0.71645 0.75192 0.76585 0.08830
S133 S 0.69056 0.78267 0.58081 -0.69550
S134 S 0.78910 0.75557 0.76635 -0.69550
H135 H 0.67591 0.76314 0.69003 0.08830
C136 C 0.22585 0.76308 0.83668 -0.16330
C137 C 0.23848 0.76284 0.78114 0.22060
C138 C 0.27488 0.76921 0.77052 -0.16330
C139 C 0.29867 0.77583 0.81544 -0.16330
C140 C 0.28605 0.77607 0.87098 0.22060
C141 C 0.24964 0.76970 0.88161 -0.16330
H142 H 0.24087 0.76987 0.92020 0.08830
H143 H 0.20056 0.75866 0.84407 0.08830
H144 H 0.28365 0.76904 0.73192 0.08830
S145 S 0.30950 0.78266 0.91915 -0.69550
S146 S 0.21149 0.75573 0.73289 -0.69550
H147 H 0.32396 0.78026 0.80805 0.08830
C148 C 0.25164 0.71630 0.37840 -0.16330
C149 C 0.21497 0.71785 0.36808 0.22060
C150 C 0.20234 0.72601 0.31318 -0.16330
C151 C 0.22638 0.73261 0.26860 -0.16330
C152 C 0.26304 0.73106 0.27891 0.22060
C153 C 0.27567 0.72291 0.33381 -0.16330
H154 H 0.30115 0.72183 0.34098 0.08830
H155 H 0.26041 0.71063 0.41654 0.08830
H156 H 0.17687 0.72708 0.30602 0.08830
S157 S 0.28915 0.73755 0.23429 -0.69550
S158 S 0.18940 0.71069 0.41822 -0.69550
H159 H 0.21760 0.73828 0.23045 0.08830
C160 C 0.96494 0.31586 0.24238 -0.16330
C161 C 0.97892 0.31618 0.29710 0.22060
C162 C 0.01580 0.31514 0.30528 -0.16330
C163 C 0.03871 0.31380 0.25875 -0.16330
C164 C 0.02473 0.31348 0.20403 0.22060
C165 C 0.98785 0.31451 0.19584 -0.16330
H166 H 0.97813 0.31430 0.15782 0.08830
H167 H 0.93931 0.31658 0.23669 0.08830
H168 H 0.02552 0.31536 0.34330 0.08830
S169 S 0.04722 0.31222 0.15427 -0.69550
S170 S 0.95288 0.31740 0.34717 -0.69550
H171 H 0.06434 0.31308 0.26444 0.08830
C172 C 0.99504 0.64291 0.77983 -0.16330
C173 C 0.97480 0.68951 0.79200 0.22060
C174 C 0.97822 0.73642 0.75858 -0.16330
C175 C 0.00188 0.73673 0.71298 -0.16330
C176 C 0.02212 0.69012 0.70080 0.22060
C177 C 0.01870 0.64321 0.73423 -0.16330
H178 H 0.03277 0.61083 0.72577 0.08830
H179 H 0.99267 0.61032 0.80305 0.08830
H180 H 0.96415 0.76880 0.76704 0.08830
S181 S 0.04699 0.68811 0.65401 -0.69550
S182 S 0.94921 0.68768 0.84263 -0.69550
H183 H 0.00425 0.76932 0.68976 0.08830
C184 C 0.46491 0.18509 0.75763 -0.16330
C185 C 0.47888 0.18378 0.70292 0.22060
C186 C 0.51577 0.18381 0.69472 -0.16330
C187 C 0.53869 0.18514 0.74124 -0.16330
C188 C 0.52472 0.18646 0.79595 0.22060
C189 C 0.48783 0.18643 0.80415 -0.16330
H190 H 0.47812 0.18734 0.84216 0.08830
H191 H 0.43928 0.18508 0.76332 0.08830
H192 H 0.52548 0.18289 0.65671 0.08830
S193 S 0.54722 0.18776 0.84569 -0.69550
S194 S 0.45283 0.18260 0.65286 -0.69550
H195 H 0.56432 0.18516 0.73555 0.08830
C196 C 0.53503 0.80683 0.24243 -0.16330
C197 C 0.52106 0.80674 0.29715 0.22060
C198 C 0.48417 0.80800 0.30534 -0.16330
C199 C 0.46127 0.80935 0.25881 -0.16330
C200 C 0.47524 0.80943 0.20408 0.22060
C201 C 0.51212 0.80817 0.19589 -0.16330
H202 H 0.52184 0.80823 0.15787 0.08830
H203 H 0.56066 0.80595 0.23674 0.08830
H204 H 0.47446 0.80794 0.34337 0.08830
S205 S 0.45275 0.81068 0.15433 -0.69550
S206 S 0.54709 0.80551 0.34723 -0.69550
H207 H 0.43564 0.81022 0.26450 0.08830
C208 C 0.96596 0.98628 0.49274 -0.16330
C209 C 0.97660 0.04061 0.48477 0.22060
C210 C 0.01263 0.05465 0.48873 -0.16330
C211 C 0.03801 0.01436 0.50067 -0.16330
C212 C 0.02737 0.96003 0.50863 0.22060
C213 C 0.99135 0.94599 0.50467 -0.16330
H214 H 0.98395 0.90824 0.51021 0.08830
H215 H 0.94093 0.97653 0.48999 0.08830
H216 H 0.02003 0.09239 0.48320 0.08830
S217 S 0.05254 0.91659 0.52098 -0.69550
S218 S 0.94790 0.08377 0.47200 -0.69550
H219 H 0.06305 0.02411 0.50342 0.08830
C220 C 0.03421 0.98645 0.00551 -0.16330
C221 C 0.02348 0.04046 0.01530 0.22060
C222 C 0.98735 0.05423 0.01317 -0.16330
C223 C 0.96194 0.01399 0.00125 -0.16330
C224 C 0.97266 0.95998 0.99146 0.22060
C225 C 0.00880 0.94621 0.99359 -0.16330
H226 H 0.01625 0.90868 0.98679 0.08830
H227 H 0.05931 0.97688 0.00700 0.08830
H228 H 0.97989 0.09176 0.01997 0.08830
S229 S 0.94748 0.91660 0.97905 -0.69550
S230 S 0.05221 0.08359 0.02800 -0.69550
H231 H 0.93683 0.02356 0.99990 0.08830
C232 C 0.49009 0.55188 0.49248 -0.16330
C233 C 0.52575 0.53710 0.48479 0.22060
C234 C 0.53593 0.48217 0.48901 -0.16330
C235 C 0.51046 0.44202 0.50093 -0.16330
C236 C 0.47480 0.45681 0.50862 0.22060
C237 C 0.46461 0.51174 0.50440 -0.16330
H238 H 0.43983 0.52201 0.50975 0.08830
H239 H 0.48301 0.59005 0.48955 0.08830
H240 H 0.56071 0.47189 0.48366 0.08830
S241 S 0.44727 0.41691 0.52093 -0.69550
S242 S 0.55299 0.58242 0.47202 -0.69550
H243 H 0.51754 0.40385 0.50386 0.08830
C244 C 0.50701 0.55227 0.98833 -0.16330
C245 C 0.47529 0.53851 0.01584 0.22060
C246 C 0.46879 0.48421 0.03149 -0.16330
C247 C 0.49402 0.44367 0.01963 -0.16330
C248 C 0.52574 0.45742 0.99212 0.22060
C249 C 0.53223 0.51172 0.97647 -0.16330
H250 H 0.55427 0.52128 0.95735 0.08830
H251 H 0.51152 0.59000 0.97745 0.08830
H252 H 0.44675 0.47465 0.05061 0.08830
S253 S 0.55284 0.41710 0.97889 -0.69550
S254 S 0.44814 0.58418 0.02789 -0.69550
H255 H 0.48950 0.40594 0.03051 0.08830
loop_
_geom_bond_atom_site_label_1
_geom_bond_atom_site_label_2
_geom_bond_distance
_geom_bond_site_symmetry_2
_ccdc_geom_bond_type
Fe0 S6 2.287 . S
Fe0 S7 2.287 . S
Fe0 S1 2.296 . S
S1 Fe5 2.296 . S
S1 Fe4 2.296 . S
Fe2 S7 2.287 . S
Fe2 S6 2.287 . S
Fe2 S3 2.296 . S
S3 Fe4 2.296 . S
S3 Fe5 2.296 . S
Fe4 S6 2.296 . S
Fe5 S7 2.296 . S
Fe8 S14 2.287 . S
Fe8 S15 2.287 . S
Fe8 S9 2.296 . S
S9 Fe13 2.296 . S
S9 Fe12 2.296 . S
Fe10 S15 2.287 . S
Fe10 S14 2.287 . S
Fe10 S11 2.296 . S
S11 Fe12 2.296 . S
S11 Fe13 2.296 . S
Fe12 S14 2.296 . S
Fe13 S15 2.296 . S
Fe16 S22 2.287 . S
Fe16 S23 2.287 . S
Fe16 S17 2.296 . S
S17 Fe21 2.296 . S
S17 Fe20 2.296 . S
Fe18 S23 2.287 . S
Fe18 S22 2.287 . S
Fe18 S19 2.296 . S
S19 Fe20 2.296 . S
S19 Fe21 2.296 . S
Fe20 S22 2.296 . S
Fe21 S23 2.296 . S
Fe24 S30 2.287 . S
Fe24 S31 2.287 . S
Fe24 S25 2.296 . S
S25 Fe29 2.296 . S
S25 Fe28 2.296 . S
Fe26 S31 2.287 . S
Fe26 S30 2.287 . S
Fe26 S27 2.296 . S
S27 Fe28 2.296 . S
S27 Fe29 2.296 . S
Fe28 S30 2.296 . S
Fe29 S31 2.296 . S
Fe32 S38 2.287 . S
Fe32 S39 2.287 . S
Fe32 S33 2.296 . S
S33 Fe37 2.296 . S
S33 Fe36 2.296 . S
Fe34 S39 2.287 . S
Fe34 S38 2.287 . S
Fe34 S35 2.296 . S
S35 Fe36 2.296 . S
S35 Fe37 2.296 . S
Fe36 S38 2.296 . S
Fe37 S39 2.296 . S
Fe40 S46 2.287 . S
Fe40 S47 2.287 . S
Fe40 S41 2.296 . S
S41 Fe45 2.296 . S
S41 Fe44 2.296 . S
Fe42 S47 2.287 . S
Fe42 S46 2.287 . S
Fe42 S43 2.296 . S
S43 Fe44 2.296 . S
S43 Fe45 2.296 . S
Fe44 S46 2.296 . S
Fe45 S47 2.296 . S
Fe48 S54 2.287 . S
Fe48 S55 2.287 . S
Fe48 S49 2.296 . S
S49 Fe53 2.296 . S
S49 Fe52 2.296 . S
Fe50 S55 2.287 . S
Fe50 S54 2.287 . S
Fe50 S51 2.296 . S
S51 Fe52 2.296 . S
S51 Fe53 2.296 . S
Fe52 S54 2.296 . S
Fe53 S55 2.296 . S
Fe56 S62 2.287 . S
Fe56 S63 2.287 . S
Fe56 S57 2.296 . S
S57 Fe61 2.296 . S
S57 Fe60 2.296 . S
Fe58 S63 2.287 . S
Fe58 S62 2.287 . S
Fe58 S59 2.296 . S
S59 Fe60 2.296 . S
S59 Fe61 2.296 . S
Fe60 S62 2.296 . S
Fe61 S63 2.296 . S
C64 C65 1.540 . A
C65 C66 1.540 . A
C66 C67 1.540 . A
C67 C68 1.540 . A
C68 C69 1.540 . A
C69 C64 1.540 . A
C64 H71 1.070 . S
C65 S74 1.693 . S
C66 H72 1.070 . S
C67 H75 1.070 . S
C68 S73 1.597 . S
C69 H70 1.070 . S
C76 C77 1.540 . A
C77 C78 1.540 . A
C78 C79 1.540 . A
C79 C80 1.540 . A
C80 C81 1.540 . A
C81 C76 1.540 . A
C76 H83 1.070 . S
C77 S86 1.693 . S
C78 H84 1.070 . S
C79 H87 1.070 . S
C80 S85 1.597 . S
C81 H82 1.070 . S
C88 C89 1.540 . A
C89 C90 1.540 . A
C90 C91 1.540 . A
C91 C92 1.540 . A
C92 C93 1.540 . A
C93 C88 1.540 . A
C88 H95 1.070 . S
C89 S98 1.693 . S
C90 H96 1.070 . S
C91 H99 1.070 . S
C92 S97 1.597 . S
C93 H94 1.070 . S
C100 C101 1.540 . A
C101 C102 1.540 . A
C102 C103 1.540 . A
C103 C104 1.540 . A
C104 C105 1.540 . A
C105 C100 1.540 . A
C100 H107 1.070 . S
C101 S110 1.693 . S
C102 H108 1.070 . S
C103 H111 1.070 . S
C104 S109 1.597 . S
C105 H106 1.070 . S
C112 C113 1.540 . A
C113 C114 1.540 . A
C114 C115 1.540 . A
C115 C116 1.540 . A
C116 C117 1.540 . A
C117 C112 1.540 . A
C112 H119 1.070 . S
C113 S122 1.693 . S
C114 H120 1.070 . S
C115 H123 1.070 . S
C116 S121 1.597 . S
C117 H118 1.070 . S
C124 C125 1.540 . A
C125 C126 1.540 . A
C126 C127 1.540 . A
C127 C128 1.540 . A
C128 C129 1.540 . A
C129 C124 1.540 . A
C124 H131 1.070 . S
C125 S134 1.693 . S
C126 H132 1.070 . S
C127 H135 1.070 . S
C128 S133 1.597 . S
C129 H130 1.070 . S
C136 C137 1.540 . A
C137 C138 1.540 . A
C138 C139 1.540 . A
C139 C140 1.540 . A
C140 C141 1.540 . A
C141 C136 1.540 . A
C136 H143 1.070 . S
C137 S146 1.693 . S
C138 H144 1.070 . S
C139 H147 1.070 . S
C140 S145 1.597 . S
C141 H142 1.070 . S
C148 C149 1.540 . A
C149 C150 1.540 . A
C150 C151 1.540 . A
C151 C152 1.540 . A
C152 C153 1.540 . A
C153 C148 1.540 . A
C148 H155 1.070 . S
C149 S158 1.693 . S
C150 H156 1.070 . S
C151 H159 1.070 . S
C152 S157 1.597 . S
C153 H154 1.070 . S
C160 C161 1.540 . A
C161 C162 1.540 1_655 A
C162 C163 1.540 . A
C163 C164 1.540 . A
C164 C165 1.540 1_455 A
C165 C160 1.540 . A
C160 H167 1.070 . S
C161 S170 1.693 . S
C162 H168 1.070 . S
C163 H171 1.070 . S
C164 S169 1.597 . S
C165 H166 1.070 . S
C172 C173 1.540 . A
C173 C174 1.540 . A
C174 C175 1.540 1_655 A
C175 C176 1.540 . A
C176 C177 1.540 . A
C177 C172 1.540 1_455 A
C172 H179 1.070 . S
C173 S182 1.693 . S
C174 H180 1.070 . S
C175 H183 1.070 . S
C176 S181 1.597 . S
C177 H178 1.070 . S
C184 C185 1.540 . A
C185 C186 1.540 . A
C186 C187 1.540 . A
C187 C188 1.540 . A
C188 C189 1.540 . A
C189 C184 1.540 . A
C184 H191 1.070 . S
C185 S194 1.693 . S
C186 H192 1.070 . S
C187 H195 1.070 . S
C188 S193 1.597 . S
C189 H190 1.070 . S
C196 C197 1.540 . A
C197 C198 1.540 . A
C198 C199 1.540 . A
C199 C200 1.540 . A
C200 C201 1.540 . A
C201 C196 1.540 . A
C196 H203 1.070 . S
C197 S206 1.693 . S
C198 H204 1.070 . S
C199 H207 1.070 . S
C200 S205 1.597 . S
C201 H202 1.070 . S
C208 C209 1.540 1_565 A
C209 C210 1.540 1_655 A
C210 C211 1.540 . A
C211 C212 1.540 1_545 A
C212 C213 1.540 1_455 A
C213 C208 1.540 . A
C208 H215 1.070 . S
C209 S218 1.693 . S
C210 H216 1.070 . S
C211 H219 1.070 . S
C212 S217 1.597 . S
C213 H214 1.070 . S
C220 C221 1.540 1_565 A
C221 C222 1.540 1_455 A
C222 C223 1.540 . A
C223 C224 1.540 1_544 A
C224 C225 1.540 1_655 A
C225 C220 1.540 1_556 A
C220 H227 1.070 . S
C221 S230 1.693 . S
C222 H228 1.070 . S
C223 H231 1.070 1_554 S
C224 S229 1.597 . S
C225 H226 1.070 . S
C232 C233 1.540 . A
C233 C234 1.540 . A
C234 C235 1.540 . A
C235 C236 1.540 . A
C236 C237 1.540 . A
C237 C232 1.540 . A
C232 H239 1.070 . S
C233 S242 1.693 . S
C234 H240 1.070 . S
C235 H243 1.070 . S
C236 S241 1.597 . S
C237 H238 1.070 . S
C244 C245 1.540 1_556 A
C245 C246 1.540 . A
C246 C247 1.540 . A
C247 C248 1.540 1_554 A
C248 C249 1.540 . A
C249 C244 1.540 . A
C244 H251 1.070 . S
C245 S254 1.693 . S
C246 H252 1.070 . S
C247 H255 1.070 . S
C248 S253 1.597 . S
C249 H250 1.070 . S
S73 Fe5 3.716 . S
S74 Fe24 3.743 . S
S85 Fe42 3.747 . S
S86 Fe13 3.731 1_554 S
S97 Fe18 3.717 . S
S98 Fe36 3.745 . S
S109 Fe2 3.748 . S
S110 Fe28 3.730 1_554 S
S121 Fe21 3.752 . S
S122 Fe32 3.667 1_556 S
S133 Fe44 3.716 . S
S134 Fe8 3.747 . S
S145 Fe48 3.716 1_556 S
S146 Fe60 3.748 . S
S157 Fe53 3.746 . S
S158 Fe58 3.730 . S
S169 Fe34 2.337 . S
S170 Fe4 2.380 . S
S181 Fe56 2.337 . S
S182 Fe12 2.275 . S
S193 Fe29 2.337 . S
S194 Fe16 2.379 . S
S205 Fe50 2.321 . S
S206 Fe45 2.255 . S
S217 Fe61 3.686 . S
S218 Fe0 3.633 . S
S229 Fe10 3.686 . S
S230 Fe37 3.634 . S
S241 Fe20 3.687 . S
S242 Fe40 3.638 . S
S253 Fe26 3.687 . S
S254 Fe52 3.632 . S
