#------------------------------------------------------------------------------#
# simulation settings
#------------------------------------------------------------------------------#

##### simulation variables

variable        seed 	equal  664040
variable        T       equal  300	    #K
variable        p       equal  0.0 	#bar
variable        damp_T  equal  100 		  	#K
variable        damp_P  equal  1000.0	  	#bar
variable        dT      equal  1.0 		 	#fs
variable        kb      equal  0.0019872041

## system setup ##

units           real
atom_style      full
boundary        p p p

pair_style      lj/cut/coul/long 12.500
bond_style      harmonic
angle_style     hybrid fourier cosine/periodic
dihedral_style  harmonic
improper_style  fourier
kspace_style 	ewald 0.000001

dielectric      1.0
pair_modify     tail yes mix arithmetic
special_bonds   lj/coul 0.0 0.0 1.0
read_data       data.pto-4c_In-3c_BTB_new 				extra/bond/per/atom 40 				extra/angle/per/atom 40 				extra/dihedral/per/atom 40 				extra/improper/per/atom 40 				extra/special/per/atom 40
Reading data file ...
  triclinic box = (0 0 0) to (28.586 28.796876 28.522948) with tilt (-0.084437 -0.007969 -0.8954)
  reading atoms ...
  390 atoms
  scanning bonds ...
  scanning angles ...
  scanning dihedrals ...
  scanning impropers ...
  reading bonds ...
  456 bonds
  reading angles ...
  864 angles
  reading dihedrals ...
  1056 dihedrals
  reading impropers ...
  648 impropers
Finding 1-2 1-3 1-4 neighbors ...
     8 = max # of 1-2 neighbors
     9 = max # of 1-3 neighbors
    52 = max # of special neighbors

include			emin_pto-4c_In-3c_BTB.param
### Parameters for Equilibration ###

### Parameters for MOF ###

mass 1 12.010700000
mass 2 1.007940000
mass 3 114.818000000
mass 4 15.999400000

pair_coeff 1 1 0.105000 3.430851
pair_coeff 2 2 0.044000 2.571134
pair_coeff 3 3 0.599000 3.976081
pair_coeff 4 4 0.060000 3.118146

bond_coeff 1 462.655054 1.379256
bond_coeff 2 391.669513 1.458000
bond_coeff 3 357.440381 1.081418
bond_coeff 4 187.991596 2.033568
bond_coeff 5 646.680887 1.311940

angle_coeff 1 cosine/periodic 111.297508 -1 3
angle_coeff 2 cosine/periodic 102.183280 -1 3
angle_coeff 3 cosine/periodic 57.289016 -1 3
angle_coeff 4 fourier 127.915933 0.343737 0.374972 0.281246
angle_coeff 5 cosine/periodic 77.909182 -1 3
angle_coeff 6 cosine/periodic 131.755710 -1 3
angle_coeff 7 cosine/periodic 187.136328 -1 3

dihedral_coeff 1 3.368555 -1 2
dihedral_coeff 2 1.250000 -1 2
dihedral_coeff 3 6.737110 -1 2

improper_coeff 1 2.000000 1.000000 -1.000000 0.000000 0

### Parameters for Molecule ###

mass 5 12.010700000
mass 6 1.007940000
mass 7 14.006700000

pair_coeff 5 5 0.105000 3.430851
pair_coeff 6 6 0.044000 2.571134
pair_coeff 7 7 0.069000 3.260689

bond_coeff 6 331.069389 1.109401
bond_coeff 7 528.634538 1.451071
bond_coeff 8 527.945261 1.044419

angle_coeff 8 fourier 75.498766 0.343737 0.374972 0.281246
angle_coeff 9 fourier 169.780468 0.343737 0.374972 0.281246
angle_coeff 10 fourier 260.869388 0.317506 0.313225 0.272502
angle_coeff 11 fourier 144.695053 0.317506 0.313225 0.272502
angle_coeff 12 fourier 97.017167 0.317506 0.313225 0.272502

dihedral_coeff 4 0.054250 1 3

#------------------------------------------------------------------------------#
# deposit cations and minimization
#------------------------------------------------------------------------------#
variable		a equal lx-2
variable 		b equal ly-2
variable 		c equal lz-2
variable		aa equal xy
variable 		bb equal xz
variable 		cc equal yz

region 			box prism 2 26.586 2 26.796876 2 26.522948 -0.084437 -0.007969 -0.8954

variable		n_cation equal 6

reset_timestep  0
fix             f0 all box/relax aniso 0 vmax 0.001
thermo          10
thermo_style    custom step lx ly lz press pxx pyy pzz
min_style       cg
minimize        1e-10 1e-10 100000 100000
Ewald initialization ...
  G vector (1/distance) = 0.23303518
  estimated absolute RMS force accuracy = 0.00033335052
  estimated relative force accuracy = 1.0038752e-06
  KSpace vectors: actual max1d max3d = 713 7 1687
                  kxmax kymax kzmax  = 7 7 7
Generated 21 of 21 mixed pair_coeff terms from arithmetic mixing rule
  update every 1 steps, delay 0 steps, check yes
Step           Lx             Ly             Lz           Press           Pxx            Pyy            Pzz
0   28.586         28.796876      28.522948     -81673.382     -83139.995     -104244.18     -57635.969
Averages over the last 66 of 132 rows, steps 660 to 1310:
Lx Ly Lz Press Pxx Pyy Pzz
26.3664 26.27 26.5864 77.5105 120.832 52.8399 58.8602
Loop time of 1.26126 on 1 procs for 1310 steps with 390 atoms

Minimization stats:
  Stopping criterion = linesearch alpha is zero
  Energy initial, next-to-last, final =
  Force two-norm initial, final = 50472.843 22.631717
  Force max component initial, final = 35696.11 7.9262706
  Final line search alpha, max atom move = 2.2001269e-11 1.7438802e-10
  Iterations, force evaluations = 1310 1528

unfix           f0

reset_timestep  0

##### create and deposit the cation

molecule 		DMA DMA.txt offset 4 5 7 3 1
Read molecule template DMA:
  1 molecules
  0 fragments
  11 atoms with max type 7
  10 bonds with max type 8
  18 angles with max type 12
  18 dihedrals with max type 4
  0 impropers with max type 0
fix 			DEPOSIT all deposit 6 0 1 664040 mol DMA region box near 2

run 			12
Ewald initialization ...
  G vector (1/distance) = 0.23478735
  estimated absolute RMS force accuracy = 0.00036881771
  estimated relative force accuracy = 1.1106836e-06
  KSpace vectors: actual max1d max3d = 456 6 1098
                  kxmax kymax kzmax  = 6 6 6
Generated 21 of 21 mixed pair_coeff terms from arithmetic mixing rule
Step           Lx             Ly             Lz           Press           Pxx            Pyy            Pzz
0   26.196034      26.257524      26.421421      25.361165      26.377143      23.164191      26.542162
Loop time of 0.0181435 on 1 procs for 12 steps with 456 atoms

unfix 			DEPOSIT

##### NVT/NPT Dynamics

reset_timestep  0

velocity 		all create 300 300

fix 		 	f1 all nve
fix 		 	f2 all langevin 300 300 100 664040 zero yes
compute 		c1 all temp/com
fix_modify 		f2 temp c1

thermo_style 	custom step pe ke etotal evdwl ecoul epair emol econserve density vol
thermo 	 	 	5000

run 		 	50000
Ewald initialization ...
  G vector (1/distance) = 0.23490773
  estimated absolute RMS force accuracy = 0.00037016007
  estimated relative force accuracy = 1.114726e-06
  KSpace vectors: actual max1d max3d = 456 6 1098
                  kxmax kymax kzmax  = 6 6 6
Generated 21 of 21 mixed pair_coeff terms from arithmetic mixing rule
Step         PotEng         KinEng         TotEng         E_vdwl         E_coul         E_pair         E_mol        Econserve       Density         Volume
0   2466.6385      406.88057      2873.519       418.11396     -1263.4232     -1892.4693      4359.1078      2873.519       0.40647703     18173.789
Averages over the last 6 of 11 rows, steps 25000 to 50000:
PotEng KinEng TotEng E_vdwl E_coul E_pair E_mol Econserve Density Volume
2351.34 414.653 2765.99 356.742 -1502.44 -2338.42 4689.75 2765.99 0.406477 18173.8
Loop time of 42.7534 on 1 procs for 50000 steps with 456 atoms

unfix 		 	f1
unfix 		 	f2

fix 		 	f1 all npt temp 300 300 100 tri 0 0 1000
fix_modify 		f1 temp c1
run 		 	50000
Ewald initialization ...
  G vector (1/distance) = 0.23490773
  estimated absolute RMS force accuracy = 0.00037016007
  estimated relative force accuracy = 1.114726e-06
  KSpace vectors: actual max1d max3d = 456 6 1098
                  kxmax kymax kzmax  = 6 6 6
Generated 21 of 21 mixed pair_coeff terms from arithmetic mixing rule
Step         PotEng         KinEng         TotEng         E_vdwl         E_coul         E_pair         E_mol        Econserve       Density         Volume
50000   2360.1811      407.76215      2767.9432      358.04324     -1485.4113     -2318.3995      4678.5805      2767.9432      0.40647703     18173.789
Averages over the last 6 of 11 rows, steps 75000 to 100000:
PotEng KinEng TotEng E_vdwl E_coul E_pair E_mol Econserve Density Volume
2349.63 400.88 2750.51 345.609 -1485.41 -2332.03 4681.66 2767.67 0.40064 18438.9
Loop time of 45.7219 on 1 procs for 50000 steps with 456 atoms

unfix 		 	f1

#------------------------------------------------------------------------------#
# final equilibration and save data file
#------------------------------------------------------------------------------#
### save volume
reset_timestep  0
min_style 		cg
minimize		1e-15 1e-15 100000 100000
Ewald initialization ...
  G vector (1/distance) = 0.23478612
  estimated absolute RMS force accuracy = 0.00037784417
  estimated relative force accuracy = 1.1378665e-06
  KSpace vectors: actual max1d max3d = 459 6 1098
                  kxmax kymax kzmax  = 6 6 6
Generated 21 of 21 mixed pair_coeff terms from arithmetic mixing rule
Step         PotEng         KinEng         TotEng         E_vdwl         E_coul         E_pair         E_mol        Econserve       Density         Volume
0   2337.0911      399.33152      2736.4226      334.22453     -1484.46       -2341.6588      4678.7498      2736.4226      0.39928557     18501.114
Loop time of 1.5791 on 1 procs for 696 steps with 456 atoms

Minimization stats:
  Stopping criterion = linesearch alpha is zero
  Energy initial, next-to-last, final =
  Force two-norm initial, final = 914.70908 0.94211046
  Force max component initial, final = 112.92653 0.10894864
  Final line search alpha, max atom move = 1.0085291e-08 1.0987787e-09
  Iterations, force evaluations = 696 1471

reset_timestep  0
fix             f0 all box/relax tri 0 vmax 0.001
thermo          10
thermo_style    custom step lx ly lz press pxx pyy pzz
min_style       cg
minimize        1e-15 1e-15 100000 100000
Ewald initialization ...
  G vector (1/distance) = 0.23478612
  estimated absolute RMS force accuracy = 0.00037784417
  estimated relative force accuracy = 1.1378665e-06
  KSpace vectors: actual max1d max3d = 459 6 1098
                  kxmax kymax kzmax  = 6 6 6
Generated 21 of 21 mixed pair_coeff terms from arithmetic mixing rule
Step           Lx             Ly             Lz           Press           Pxx            Pyy            Pzz
0   26.626245      26.318771      26.40112       395.13624      211.6675       433.1687       540.57253
Loop time of 0.118179 on 1 procs for 32 steps with 456 atoms

Minimization stats:
  Stopping criterion = linesearch alpha is zero
  Energy initial, next-to-last, final =
  Force two-norm initial, final = 291.50792 9.3441054
  Force max component initial, final = 200.79232 6.6095222
  Final line search alpha, max atom move = 7.2374046e-11 4.7835786e-10
  Iterations, force evaluations = 32 105

unfix           f0

min_style 		cg
minimize		1e-15 1e-15 100000 100000
Ewald initialization ...
  G vector (1/distance) = 0.23481561
  estimated absolute RMS force accuracy = 0.00037577262
  estimated relative force accuracy = 1.1316281e-06
  KSpace vectors: actual max1d max3d = 458 6 1098
                  kxmax kymax kzmax  = 6 6 6
Generated 21 of 21 mixed pair_coeff terms from arithmetic mixing rule
Step           Lx             Ly             Lz           Press           Pxx            Pyy            Pzz
32   26.560405      26.295548      26.375538      988.99324      956.86648      947.00269      1063.1106
Loop time of 0.388119 on 1 procs for 152 steps with 456 atoms

Minimization stats:
  Stopping criterion = linesearch alpha is zero
  Energy initial, next-to-last, final =
  Force two-norm initial, final = 5.7801473 0.48921209
  Force max component initial, final = 0.60442124 0.051988983
  Final line search alpha, max atom move = 4.7890757e-08 2.4897918e-09
  Iterations, force evaluations = 152 349

variable 		volume equal vol
The volume of pto-4c_In-3c_BTB: 18421.2136377649

write_data 		data.emin_pto-4c_In-3c_BTB_DMA pair ij
System init for write_data ...
Ewald initialization ...
  G vector (1/distance) = 0.23481561
  estimated absolute RMS force accuracy = 0.00037577262
  estimated relative force accuracy = 1.1316281e-06
  KSpace vectors: actual max1d max3d = 458 6 1098
                  kxmax kymax kzmax  = 6 6 6
Generated 21 of 21 mixed pair_coeff terms from arithmetic mixing rule

### For strain energy
reset_timestep  0

fix				f1 all nve
fix 			f2 all langevin 0 0 100 664040

thermo_style 	custom step pe ke etotal evdwl ecoul epair emol econserve density vol
thermo 	 	 	5000

variable		strain equal pe
fix 			STRAIN all ave/time 1 100 100 v_strain file STRAIN_pto-4c_In-3c_BTB.dat

run 			100
Ewald initialization ...
  G vector (1/distance) = 0.23481561
  estimated absolute RMS force accuracy = 0.00037577262
  estimated relative force accuracy = 1.1316281e-06
  KSpace vectors: actual max1d max3d = 458 6 1098
                  kxmax kymax kzmax  = 6 6 6
Generated 21 of 21 mixed pair_coeff terms from arithmetic mixing rule
Step         PotEng         KinEng         TotEng         E_vdwl         E_coul         E_pair         E_mol        Econserve       Density         Volume
0   1927.537       399.33152      2326.8685      321.09019     -1501.1344     -2373.6473      4301.1843      2326.8685      0.40101743     18421.214
Loop time of 0.108735 on 1 procs for 100 steps with 456 atoms

unfix			f1
unfix			f2
unfix			STRAIN

### For potential energy
reset_timestep	0
velocity 		all create 300 300
fix 		 	f1 all nve
fix 		 	f2 all langevin 300 300 100 664040 zero yes
fix_modify 		f2 temp c1
thermo_style 	custom step pe ke etotal evdwl ecoul epair emol econserve density vol
thermo 	 	 	5000
variable 	 	potential equal pe
fix				PE all ave/time 1 50000 50000 v_potential file PE_pto-4c_In-3c_BTB.dat

run				50000
Ewald initialization ...
  G vector (1/distance) = 0.23481561
  estimated absolute RMS force accuracy = 0.00037577262
  estimated relative force accuracy = 1.1316281e-06
  KSpace vectors: actual max1d max3d = 458 6 1098
                  kxmax kymax kzmax  = 6 6 6
Generated 21 of 21 mixed pair_coeff terms from arithmetic mixing rule
Step         PotEng         KinEng         TotEng         E_vdwl         E_coul         E_pair         E_mol        Econserve       Density         Volume
0   2014.193       406.88057      2421.0736      322.68538     -1500.0623     -2370.2608      4384.4538      2421.0736      0.40101743     18421.214
Averages over the last 6 of 11 rows, steps 25000 to 50000:
PotEng KinEng TotEng E_vdwl E_coul E_pair E_mol Econserve Density Volume
2351.49 415.336 2766.82 351.247 -1494.15 -2334.34 4685.82 2766.82 0.401017 18421.2
Loop time of 56.2658 on 1 procs for 50000 steps with 456 atoms

unfix			f1
unfix			f2
unfix			PE
