#------------------------------------------------------------------------------#
# simulation settings
#------------------------------------------------------------------------------#

##### simulation variables

variable        seed 	equal  77229
variable        T       equal  300	    #K
variable        p       equal  0.0 	#bar
variable        damp_T  equal  100 		  	#K
variable        damp_P  equal  1000.0	  	#bar
variable        dT      equal  1.0 		 	#fs
variable        kb      equal  0.0019872041

## system setup ##

units           real
atom_style      full
boundary        p p p

pair_style      lj/cut/soft 1 0.5 12.5
bond_style      harmonic
angle_style     hybrid fourier cosine/periodic
dihedral_style  harmonic
improper_style  fourier

pair_modify 	tail yes mix arithmetic
special_bonds 	lj/coul 0.0 0.0 1.0

read_data 	 	../data.emin_pto-4c_In-3c_BTB_DMA_fe
Reading data file ...
  triclinic box = (1.0127974 1.2506642 1.0737052) to (27.573203 27.546212 27.449243) with tilt (-0.4871608 -0.79355401 -0.31961632)
  reading atoms ...
  456 atoms
  reading velocities ...
  456 velocities
  scanning bonds ...
  scanning angles ...
  scanning dihedrals ...
  scanning impropers ...
  reading bonds ...
  516 bonds
  reading angles ...
  972 angles
  reading dihedrals ...
  1164 dihedrals
  reading impropers ...
  648 impropers
Finding 1-2 1-3 1-4 neighbors ...
     8 = max # of 1-2 neighbors
     9 = max # of 1-3 neighbors
    12 = max # of special neighbors
include 	 	../non_bonded_pto-4c_In-3c_BTB_lj.param
### Parameters for Equilibration ###

### Parameters for MOF ###

mass 1 12.010700000
mass 2 1.007940000
mass 3 114.818000000
mass 4 15.999400000

bond_coeff 1 462.655054 1.379256
bond_coeff 2 391.669513 1.458000
bond_coeff 3 357.440381 1.081418
bond_coeff 4 187.991596 2.033568
bond_coeff 5 646.680887 1.311940

angle_coeff 1 cosine/periodic 111.297508 -1 3
angle_coeff 2 cosine/periodic 102.183280 -1 3
angle_coeff 3 cosine/periodic 57.289016 -1 3
angle_coeff 4 fourier 127.915933 0.343737 0.374972 0.281246
angle_coeff 5 cosine/periodic 77.909182 -1 3
angle_coeff 6 cosine/periodic 131.755710 -1 3
angle_coeff 7 cosine/periodic 187.136328 -1 3

dihedral_coeff 1 3.368555 -1 2
dihedral_coeff 2 1.250000 -1 2
dihedral_coeff 3 6.737110 -1 2

improper_coeff 1 2.000000 1.000000 -1.000000 0.000000 0

### Parameters for Molecule ###

mass 5 12.010700000
mass 6 1.007940000
mass 7 14.006700000

bond_coeff 6 331.069389 1.109401
bond_coeff 7 528.634538 1.451071
bond_coeff 8 527.945261 1.044419

angle_coeff 8 fourier 75.498766 0.343737 0.374972 0.281246
angle_coeff 9 fourier 169.780468 0.343737 0.374972 0.281246
angle_coeff 10 fourier 260.869388 0.317506 0.313225 0.272502
angle_coeff 11 fourier 144.695053 0.317506 0.313225 0.272502
angle_coeff 12 fourier 97.017167 0.317506 0.313225 0.272502

dihedral_coeff 4 0.054250 1 3

pair_coeff 1 1 0.105 3.43085 1 12.5
pair_coeff 1 2 0.0679706 3.00099 1 12.5
pair_coeff 1 3 0.250789 3.70347 1 12.5
pair_coeff 1 4 0.0793725 3.2745 1 12.5
pair_coeff 1 5 0.105 3.43085 1 12.5
pair_coeff 1 6 0.0679706 3.00099 1 12.5
pair_coeff 1 7 0.0851176 3.34577 1 12.5
pair_coeff 2 2 0.044 2.57113 1 12.5
pair_coeff 2 3 0.162345 3.27361 1 12.5
pair_coeff 2 4 0.0513809 2.84464 1 12.5
pair_coeff 2 5 0.0679706 3.00099 1 12.5
pair_coeff 2 6 0.044 2.57113 1 12.5
pair_coeff 2 7 0.0550999 2.91591 1 12.5
pair_coeff 3 3 0.599 3.97608 1 12.5
pair_coeff 3 4 0.189578 3.54711 1 12.5
pair_coeff 3 5 0.250789 3.70347 1 12.5
pair_coeff 3 6 0.162345 3.27361 1 12.5
pair_coeff 3 7 0.2033 3.61838 1 12.5
pair_coeff 4 4 0.06 3.11815 1 12.5
pair_coeff 4 5 0.0793725 3.2745 1 12.5
pair_coeff 4 6 0.0513809 2.84464 1 12.5
pair_coeff 4 7 0.0643428 3.18942 1 12.5
pair_coeff 5 5 0.105 3.43085 1 12.5
pair_coeff 5 6 0.0679706 3.00099 1 12.5
pair_coeff 5 7 0.0851176 3.34577 1 12.5
pair_coeff 6 6 0.044 2.57113 1 12.5
pair_coeff 6 7 0.0550999 2.91591 1 12.5
pair_coeff 7 7 0.069 3.26069 1 12.5

group			fram type < 5
390 atoms in group fram

fix				SPRING fram spring/self 10 	# harmonic restraint to framework

group			cation type > 4
66 atoms in group cation
group			center type 7
6 atoms in group center
fix			SPRING2 center spring/self 1

#------------------------------------------------------------------------------#
# equilibration
#------------------------------------------------------------------------------#

reset_timestep	0

variable 		delta equal 0
fix 			ADAPT all adapt 0 pair lj/cut/soft lambda * * v_delta

thermo_style	custom step etotal ke pe temp press density vol evdwl etail ecoul elong epair
thermo 			5000
velocity 		all create 300 77229

fix				f1 all nve
fix 			f2 all langevin 300 300 100 77229 zero yes
compute 		c1 all temp/com
fix_modify		f2 temp c1

run				500000
Generated 0 of 21 mixed pair_coeff terms from arithmetic mixing rule
  update every 1 steps, delay 10 steps, check yes
Step         TotEng         KinEng         PotEng          Temp          Press         Density         Volume         E_vdwl         E_tail         E_coul         E_long         E_pair
0   4708.0649      406.88057      4301.1843      300           -6449.8033      0.40101743     18421.214      0              0              0              0              0
Averages over the last 51 of 101 rows, steps 250000 to 500000:
TotEng KinEng PotEng Temp Press Density Volume E_vdwl E_tail E_coul E_long E_pair
4947.04 412.757 4534.28 304.333 -2705.33 0.401017 18421.2 0 0 0 0 0
Loop time of 48.1043 on 4 procs for 500000 steps with 456 atoms

unfix			ADAPT

#------------------------------------------------------------------------------#
# sampling
#------------------------------------------------------------------------------#

reset_timestep	0

variable		ddlambda equal 0.001
variable		ddlambda_n equal -0.001

compute 		ALL1 all fep 300 pair lj/cut/soft lambda * * v_ddlambda
compute 		ALL2 all fep 300 pair lj/cut/soft lambda * * v_ddlambda_n
variable 		dudlam equal (c_ALL1[1]-c_ALL2[1])/0.002

fix				ALL all ave/time 250 1 250 v_dudlam file LJ_0.lmp

thermo_style	custom step etotal ke pe temp press density vol evdwl etail ecoul elong epair v_dudlam
thermo			250

run 			800000
Generated 0 of 21 mixed pair_coeff terms from arithmetic mixing rule
FEP settings ...
  temperature = 300.000000
  tail no
  pair lj/cut/soft lambda 1-7 1-7
FEP settings ...
  temperature = 300.000000
  tail no
  pair lj/cut/soft lambda 1-7 1-7
Step         TotEng         KinEng         PotEng          Temp          Press         Density         Volume         E_vdwl         E_tail         E_coul         E_long         E_pair        v_dudlam
0   4912.3243      384.72379      4527.6005      283.66343     -2486.7702      0.40101743     18421.214      0              0              0              0              0             -178.09742
Averages over the last 1601 of 3201 rows, steps 400000 to 800000:
TotEng KinEng PotEng Temp Press Density Volume E_vdwl E_tail E_coul E_long E_pair v_dudlam
4946.59 410.925 4535.67 302.982 -2523.96 0.401017 18421.2 0 0 0 0 0 -182.315
Loop time of 80.9592 on 4 procs for 800000 steps with 456 atoms

unfix			f1
unfix			f2
