data_image0
_chemical_formula_structural       FeC3H2CS2CHNHSFeC2SH3CH3CHCFeCHC3HCHC4H4NH2SH2S2CH4CHCH2C2HC2H2FeCH2FeCSHCSC2S2HFeH2FeCH5CNH2SH4SC3SH5CHCH2NC3H4C2SFeHSH4C2HCH2FeC5FeS2H2C3HCH3CH2N2SH4CHCH3CHC6HFeC3HCSHCHCHCS2HC3H2SFeC2HFeSFeHSCHCH2CH3C2NCHC3HSHCH2CNCHSH3CH3CH2CHC2HC3NSCH2CFeHC2H2CHCSCH3CH3SHCH2CHCSHFeC2H3C4H2CH4C3HC2NHC4H2SHCH4C2H2CHSCSC2H3FeHCH2CHC4HC3HCH2C2H8NH2SC2H2CHS2FeCSCSFeHFeH3C4HCH4CSCSC3HCHNH2C2HC2H3CSH4CSHC4SHCFeH2SHCH4CH2SC2HCSFe2C2HSFeC3H2
_chemical_formula_sum              "Fe24 C180 H216 S48 N12"
_cell_length_a       20.5677
_cell_length_b       17.1841
_cell_length_c       19.045
_cell_angle_alpha    92.4245
_cell_angle_beta     77.0086
_cell_angle_gamma    112.883

_space_group_name_H-M_alt    "P 1"
_space_group_IT_number       1

loop_
  _space_group_symop_operation_xyz
  'x, y, z'

loop_
  _atom_site_type_symbol
  _atom_site_label
  _atom_site_symmetry_multiplicity
  _atom_site_fract_x
  _atom_site_fract_y
  _atom_site_fract_z
  _atom_site_occupancy
  Fe  Fe1       1.0  0.02941  0.51020  0.20100  1.0000
  C   C1        1.0  0.11549  0.37190  0.13793  1.0000
  C   C2        1.0  0.04672  0.32462  0.18019  1.0000
  C   C3        1.0  0.28891  0.44086  0.20852  1.0000
  H   H1        1.0  0.96458  0.19952  0.20838  1.0000
  H   H2        1.0  0.32850  0.44630  0.15683  1.0000
  C   C4        1.0  0.01857  0.23643  0.17819  1.0000
  S   S1        1.0  0.31799  0.25518  0.15786  1.0000
  S   S2        1.0  0.99600  0.37461  0.23664  1.0000
  C   C5        1.0  0.36231  0.56758  0.26158  1.0000
  H   H3        1.0  0.21043  0.36753  0.06392  1.0000
  N   N1        1.0  0.29510  0.52544  0.23487  1.0000
  H   H4        1.0  0.13630  0.43999  0.13769  1.0000
  S   S3        1.0  0.06165  0.54432  0.08277  1.0000
  Fe  Fe2       1.0  0.37688  0.16895  0.12990  1.0000
  C   C6        1.0  0.05920  0.19553  0.13521  1.0000
  C   C7        1.0  0.12884  0.24249  0.09465  1.0000
  S   S4        1.0  0.96097  0.58751  0.22601  1.0000
  H   H5        1.0  0.07248  0.17099  0.28304  1.0000
  H   H6        1.0  0.03633  0.12725  0.13334  1.0000
  H   H7        1.0  0.29772  0.40150  0.24709  1.0000
  C   C8        1.0  0.15716  0.33087  0.09616  1.0000
  H   H8        1.0  0.33904  0.58752  0.12874  1.0000
  H   H9        1.0  0.24260  0.54049  0.15281  1.0000
  H   H10       1.0  0.23455  0.40365  0.19814  1.0000
  C   C9        1.0  0.29129  0.57461  0.17469  1.0000
  H   H11       1.0  0.17958  0.48268  0.27681  1.0000
  C   C10       1.0  0.23151  0.51392  0.29454  1.0000
  Fe  Fe3       1.0  0.28975  0.22555  0.05036  1.0000
  C   C11       1.0  0.36267  0.56762  0.52658  1.0000
  H   H12       1.0  0.13195  0.30680  0.33593  1.0000
  C   C12       1.0  0.33776  0.19328  0.38357  1.0000
  C   C13       1.0  0.10263  0.53494  0.44780  1.0000
  C   C14       1.0  0.92719  0.13019  0.41832  1.0000
  H   H13       1.0  0.36626  0.59453  0.47510  1.0000
  C   C15       1.0  0.21865  0.19412  0.39324  1.0000
  H   H14       1.0  0.34151  0.28441  0.50053  1.0000
  C   C16       1.0  0.24452  0.13188  0.49081  1.0000
  C   C17       1.0  0.11289  0.17750  0.31337  1.0000
  C   C18       1.0  0.14686  0.25412  0.34297  1.0000
  C   C19       1.0  0.19956  0.26294  0.38170  1.0000
  H   H15       1.0  0.93895  0.18955  0.44500  1.0000
  H   H16       1.0  0.28306  0.13909  0.52591  1.0000
  H   H17       1.0  0.09702  0.53032  0.39085  1.0000
  H   H18       1.0  0.19344  0.13147  0.52614  1.0000
  N   N2        1.0  0.27432  0.20084  0.43374  1.0000
  H   H19       1.0  0.22899  0.47469  0.34083  1.0000
  H   H20       1.0  0.33900  0.46599  0.34039  1.0000
  S   S5        1.0  0.04575  0.25231  0.53757  1.0000
  H   H21       1.0  0.22424  0.32401  0.40229  1.0000
  H   H22       1.0  0.32358  0.13026  0.36018  1.0000
  S   S6        1.0  0.91419  0.34189  0.50910  1.0000
  S   S7        1.0  0.23930  0.44151  0.50489  1.0000
  C   C20       1.0  0.30058  0.28181  0.46991  1.0000
  H   H23       1.0  0.04860  0.49602  0.48164  1.0000
  H   H24       1.0  0.14060  0.50526  0.45383  1.0000
  H   H25       1.0  0.25540  0.29000  0.50982  1.0000
  H   H26       1.0  0.32774  0.33731  0.43072  1.0000
  C   C21       1.0  0.90623  0.12314  0.35304  1.0000
  H   H27       1.0  0.35980  0.24117  0.33766  1.0000
  C   C22       1.0  0.18288  0.11726  0.36211  1.0000
  H   H28       1.0  0.38219  0.20127  0.41112  1.0000
  H   H29       1.0  0.90211  0.17700  0.32967  1.0000
  C   C23       1.0  0.89827  0.43405  0.52715  1.0000
  C   C24       1.0  0.13117  0.10930  0.32258  1.0000
  H   H30       1.0  0.23370  0.57595  0.31479  1.0000
  C   C25       1.0  0.37667  0.52732  0.31649  1.0000
  C   C26       1.0  0.30442  0.49287  0.55512  1.0000
  H   H31       1.0  0.96104  0.52200  0.73681  1.0000
  H   H32       1.0  0.25562  0.40053  0.64438  1.0000
  Fe  Fe4       1.0  0.13525  0.35485  0.57615  1.0000
  C   C27       1.0  0.35466  0.49813  0.65980  1.0000
  H   H33       1.0  0.04636  0.58482  0.75688  1.0000
  H   H34       1.0  0.24452  0.20011  0.76993  1.0000
  Fe  Fe5       1.0  0.97815  0.32483  0.58295  1.0000
  C   C28       1.0  0.90607  0.47219  0.59270  1.0000
  S   S8        1.0  0.35332  0.15093  0.67157  1.0000
  H   H35       1.0  0.35262  0.46976  0.71012  1.0000
  C   C29       1.0  0.18710  0.16491  0.79111  1.0000
  S   S9        1.0  0.10892  0.28730  0.68400  1.0000
  C   C30       1.0  0.18197  0.54439  0.74189  1.0000
  C   C31       1.0  0.99365  0.58579  0.75268  1.0000
  S   S10       1.0  0.93966  0.26240  0.69322  1.0000
  S   S11       1.0  0.06876  0.43031  0.61485  1.0000
  H   H36       1.0  0.17253  0.50353  0.69755  1.0000
  Fe  Fe6       1.0  0.03934  0.36065  0.72030  1.0000
  H   H37       1.0  0.92292  0.44526  0.63205  1.0000
  H   H38       1.0  0.89534  0.57380  0.65851  1.0000
  Fe  Fe7       1.0  0.01126  0.19292  0.64934  1.0000
  C   C32       1.0  0.29985  0.45869  0.62228  1.0000
  H   H39       1.0  0.07676  0.59970  0.58299  1.0000
  H   H40       1.0  0.36695  0.60082  0.79607  1.0000
  H   H41       1.0  0.16182  0.58936  0.55889  1.0000
  H   H42       1.0  0.36812  0.28276  0.78513  1.0000
  H   H43       1.0  0.35244  0.58746  0.99497  1.0000
  C   C33       1.0  0.07021  0.15833  0.86471  1.0000
  N   N3        1.0  0.02462  0.19613  0.91347  1.0000
  H   H44       1.0  0.17470  0.26652  0.85093  1.0000
  H   H45       1.0  0.25262  0.53114  0.93676  1.0000
  S   S12       1.0  0.38739  0.33388  0.99232  1.0000
  H   H46       1.0  0.95610  0.17066  0.02138  1.0000
  H   H47       1.0  0.25862  0.43087  0.94177  1.0000
  H   H48       1.0  0.03075  0.30817  0.97259  1.0000
  H   H49       1.0  0.09431  0.32757  0.88826  1.0000
  S   S13       1.0  0.34257  0.13224  0.02569  1.0000
  C   C34       1.0  0.13256  0.52268  0.80885  1.0000
  C   C35       1.0  0.98610  0.14132  0.98022  1.0000
  C   C36       1.0  0.35937  0.39494  0.83447  1.0000
  S   S14       1.0  0.17644  0.19057  0.03654  1.0000
  H   H50       1.0  0.93472  0.23126  0.91216  1.0000
  H   H51       1.0  0.02461  0.12741  0.00524  1.0000
  H   H52       1.0  0.10740  0.28043  0.96414  1.0000
  H   H53       1.0  0.10976  0.55826  0.91862  1.0000
  H   H54       1.0  0.91550  0.47710  0.85953  1.0000
  C   C37       1.0  0.06642  0.28177  0.93548  1.0000
  H   H55       1.0  0.36960  0.49280  0.99283  1.0000
  C   C38       1.0  0.38130  0.55142  0.96121  1.0000
  H   H56       1.0  0.93423  0.14131  0.86143  1.0000
  H   H57       1.0  0.98600  0.54625  0.89805  1.0000
  N   N4        1.0  0.35918  0.53189  0.89152  1.0000
  C   C39       1.0  0.97042  0.20332  0.87712  1.0000
  C   C40       1.0  0.93785  0.54232  0.87838  1.0000
  C   C41       1.0  0.27884  0.48965  0.90715  1.0000
  H   H58       1.0  0.99721  0.24451  0.82702  1.0000
  H   H59       1.0  0.89747  0.54782  0.92604  1.0000
  H   H60       1.0  0.30140  0.36287  0.85095  1.0000
  H   H61       1.0  0.25902  0.47471  0.85635  1.0000
  C   C42       1.0  0.14725  0.57488  0.86652  1.0000
  C   C43       1.0  0.14600  0.20258  0.83753  1.0000
  S   S15       1.0  0.05049  0.43329  0.82052  1.0000
  Fe  Fe8       1.0  0.06251  0.69382  0.24064  1.0000
  H   H62       1.0  0.28864  0.63619  0.19213  1.0000
  S   S16       1.0  0.36840  0.08421  0.22006  1.0000
  H   H63       1.0  0.38064  0.90052  0.18922  1.0000
  H   H64       1.0  0.20196  0.91130  0.05919  1.0000
  H   H65       1.0  0.97635  0.77593  0.14470  1.0000
  H   H66       1.0  0.24352  0.01809  0.15679  1.0000
  C   C44       1.0  0.38753  0.86400  0.14247  1.0000
  C   C45       1.0  0.23033  0.98460  0.20810  1.0000
  H   H67       1.0  0.28146  0.80741  0.27316  1.0000
  C   C46       1.0  0.28216  0.00476  0.24972  1.0000
  H   H68       1.0  0.95511  0.90787  0.16810  1.0000
  H   H69       1.0  0.27269  0.79488  0.15027  1.0000
  Fe  Fe9       1.0  0.15622  0.65124  0.10888  1.0000
  C   C47       1.0  0.93533  0.86856  0.12540  1.0000
  C   C48       1.0  0.16201  0.91938  0.23215  1.0000
  C   C49       1.0  0.32686  0.80480  0.12039  1.0000
  C   C50       1.0  0.92169  0.74285  0.05689  1.0000
  C   C51       1.0  0.94814  0.79436  0.11149  1.0000
  Fe  Fe10      1.0  0.00264  0.63064  0.10935  1.0000
  S   S17       1.0  0.12770  0.61276  0.22609  1.0000
  S   S18       1.0  0.10042  0.74066  0.12505  1.0000
  H   H70       1.0  0.12259  0.90222  0.19909  1.0000
  H   H71       1.0  0.11510  0.90757  0.05321  1.0000
  C   C52       1.0  0.33681  0.75846  0.05962  1.0000
  C   C53       1.0  0.89505  0.89044  0.08551  1.0000
  C   C54       1.0  0.14461  0.87695  0.29917  1.0000
  H   H72       1.0  0.10558  0.05008  0.29840  1.0000
  C   C55       1.0  0.93259  0.06128  0.44938  1.0000
  H   H73       1.0  0.26226  0.62949  0.48000  1.0000
  H   H74       1.0  0.05633  0.64520  0.41045  1.0000
  H   H75       1.0  0.19528  0.06285  0.36749  1.0000
  C   C56       1.0  0.13137  0.62566  0.54600  1.0000
  H   H76       1.0  0.30467  0.97747  0.34914  1.0000
  H   H77       1.0  0.18137  0.86939  0.39514  1.0000
  N   N5        1.0  0.12770  0.62371  0.46902  1.0000
  N   N6        1.0  0.91733  0.90885  0.45287  1.0000
  S   S19       1.0  0.29486  0.96914  0.54748  1.0000
  H   H78       1.0  0.03075  0.93926  0.40887  1.0000
  H   H79       1.0  0.23289  0.06825  0.46857  1.0000
  H   H80       1.0  0.01126  0.98271  0.49502  1.0000
  H   H81       1.0  0.94876  0.06970  0.50041  1.0000
  C   C57       1.0  0.89476  0.82983  0.41326  1.0000
  H   H82       1.0  0.99387  0.87277  0.48997  1.0000
  C   C58       1.0  0.91592  0.98236  0.41621  1.0000
  H   H83       1.0  0.89602  0.77579  0.44267  1.0000
  H   H84       1.0  0.16292  0.72398  0.34418  1.0000
  H   H85       1.0  0.09226  0.72696  0.47082  1.0000
  C   C59       1.0  0.07253  0.65762  0.46303  1.0000
  H   H86       1.0  0.02119  0.62786  0.50428  1.0000
  C   C60       1.0  0.26397  0.66852  0.43620  1.0000
  C   C61       1.0  0.19487  0.90105  0.34279  1.0000
  C   C62       1.0  0.33229  0.71655  0.39355  1.0000
  C   C63       1.0  0.19995  0.67218  0.42267  1.0000
  C   C64       1.0  0.89552  0.97761  0.34899  1.0000
  C   C65       1.0  0.99154  0.92715  0.46203  1.0000
  H   H87       1.0  0.93199  0.83658  0.35936  1.0000
  Fe  Fe11      1.0  0.37397  0.90661  0.53166  1.0000
  C   C66       1.0  0.20846  0.72051  0.36044  1.0000
  C   C67       1.0  0.27674  0.76773  0.31802  1.0000
  C   C68       1.0  0.33865  0.76689  0.33500  1.0000
  H   H88       1.0  0.38089  0.71648  0.40664  1.0000
  C   C69       1.0  0.26457  0.96251  0.31687  1.0000
  S   S20       1.0  0.06312  0.78878  0.32566  1.0000
  H   H89       1.0  0.39174  0.80623  0.30326  1.0000
  C   C70       1.0  0.24422  0.61970  0.73190  1.0000
  H   H90       1.0  0.15887  0.69130  0.56049  1.0000
  C   C71       1.0  0.09955  0.95604  0.62261  1.0000
  H   H91       1.0  0.00515  0.63223  0.70782  1.0000
  C   C72       1.0  0.06581  0.01403  0.63336  1.0000
  S   S21       1.0  0.29196  0.78628  0.59112  1.0000
  S   S22       1.0  0.94646  0.05434  0.67149  1.0000
  H   H92       1.0  0.94956  0.77292  0.65945  1.0000
  C   C73       1.0  0.99047  0.98464  0.65560  1.0000
  C   C74       1.0  0.94876  0.89785  0.66549  1.0000
  C   C75       1.0  0.15456  0.08236  0.77111  1.0000
  H   H93       1.0  0.15781  0.97864  0.60772  1.0000
  H   H94       1.0  0.09775  0.08129  0.62748  1.0000
  S   S23       1.0  0.24921  0.90650  0.71739  1.0000
  Fe  Fe12      1.0  0.21665  0.85457  0.61575  1.0000
  C   C76       1.0  0.05748  0.86903  0.63238  1.0000
  C   C77       1.0  0.25820  0.67249  0.78938  1.0000
  H   H95       1.0  0.18670  0.05400  0.73445  1.0000
  Fe  Fe13      1.0  0.32929  0.84539  0.68938  1.0000
  S   S24       1.0  0.09754  0.79515  0.62191  1.0000
  Fe  Fe14      1.0  0.33365  0.01649  0.64748  1.0000
  H   H96       1.0  0.28208  0.63614  0.67995  1.0000
  S   S25       1.0  0.33505  0.76788  0.77724  1.0000
  C   C78       1.0  0.98218  0.84012  0.65275  1.0000
  H   H97       1.0  0.05502  0.97292  0.78129  1.0000
  C   C79       1.0  0.08064  0.03692  0.79751  1.0000
  H   H98       1.0  0.03068  0.73916  0.79821  1.0000
  H   H99       1.0  0.19238  0.00589  0.03669  1.0000
  C   C80       1.0  0.31565  0.92925  0.94622  1.0000
  H   H100      1.0  0.05535  0.68096  0.85493  1.0000
  H   H101      1.0  0.08890  0.92471  0.93870  1.0000
  H   H102      1.0  0.15682  0.94433  0.85650  1.0000
  C   C81       1.0  0.37957  0.61253  0.85040  1.0000
  C   C82       1.0  0.26911  0.95864  0.92037  1.0000
  N   N7        1.0  0.95613  0.60868  0.82122  1.0000
  C   C83       1.0  0.16199  0.82798  0.94146  1.0000
  H   H103      1.0  0.98123  0.03764  0.85966  1.0000
  C   C84       1.0  0.21022  0.64917  0.85692  1.0000
  C   C85       1.0  0.14831  0.95517  0.91523  1.0000
  C   C86       1.0  0.03878  0.07448  0.84272  1.0000
  H   H104      1.0  0.18451  0.79547  0.97274  1.0000
  S   S26       1.0  0.93512  0.64874  0.04002  1.0000
  H   H105      1.0  0.10195  0.79743  0.96065  1.0000
  C   C87       1.0  0.37801  0.06232  0.84183  1.0000
  H   H106      1.0  0.29442  0.87847  0.98720  1.0000
  H   H107      1.0  0.27237  0.05380  0.84422  1.0000
  C   C88       1.0  0.00787  0.68911  0.84255  1.0000
  N   N8        1.0  0.18980  0.92070  0.95029  1.0000
  C   C89       1.0  0.17420  0.93680  0.02816  1.0000
  H   H108      1.0  0.92565  0.75344  0.80882  1.0000
  S   S27       1.0  0.26365  0.67827  0.03431  1.0000
  H   H109      1.0  0.16362  0.02423  0.92313  1.0000
  H   H110      1.0  0.22131  0.68925  0.90158  1.0000
  H   H111      1.0  0.98145  0.71219  0.89174  1.0000
  C   C90       1.0  0.30270  0.02642  0.86696  1.0000
  H   H112      1.0  0.17673  0.81363  0.88384  1.0000
  H   H113      1.0  0.35016  0.65143  0.87883  1.0000
  H   H114      1.0  0.94535  0.07964  0.97015  1.0000
  C   C91       1.0  0.39084  0.96581  0.92085  1.0000
  H   H115      1.0  0.58365  0.54280  0.22243  1.0000
  H   H116      1.0  0.78004  0.10864  0.21087  1.0000
  C   C92       1.0  0.68511  0.13796  0.22579  1.0000
  H   H117      1.0  0.73538  0.37387  0.10208  1.0000
  C   C93       1.0  0.57441  0.16609  0.16163  1.0000
  C   C94       1.0  0.80039  0.23474  0.24640  1.0000
  H   H118      1.0  0.85656  0.24893  0.24594  1.0000
  C   C95       1.0  0.70876  0.55946  0.13019  1.0000
  C   C96       1.0  0.63272  0.56773  0.24559  1.0000
  C   C97       1.0  0.72796  0.43051  0.08985  1.0000
  N   N9        1.0  0.57897  0.17961  0.23820  1.0000
  S   S28       1.0  0.47105  0.48475  0.13476  1.0000
  C   C98       1.0  0.71164  0.57801  0.05718  1.0000
  H   H119      1.0  0.59479  0.11755  0.13805  1.0000
  H   H120      1.0  0.58598  0.30782  0.22990  1.0000
  C   C99       1.0  0.65421  0.19911  0.24400  1.0000
  Fe  Fe15      1.0  0.42106  0.35509  0.09741  1.0000
  H   H121      1.0  0.80502  0.35594  0.28372  1.0000
  C   C100      1.0  0.77114  0.29519  0.26723  1.0000
  C   C101      1.0  0.69890  0.27792  0.26656  1.0000
  H   H122      1.0  0.67930  0.32702  0.28417  1.0000
  H   H123      1.0  0.49603  0.23028  0.25617  1.0000
  C   C102      1.0  0.55255  0.24752  0.26233  1.0000
  H   H124      1.0  0.63680  0.51324  0.27095  1.0000
  C   C103      1.0  0.71773  0.48424  0.14471  1.0000
  S   S29       1.0  0.48270  0.27182  0.07777  1.0000
  C   C104      1.0  0.75725  0.15586  0.22667  1.0000
  H   H125      1.0  0.60673  0.22508  0.12714  1.0000
  H   H126      1.0  0.71768  0.46705  0.19863  1.0000
  H   H127      1.0  0.51749  0.14327  0.15560  1.0000
  C   C105      1.0  0.52138  0.55309  0.05916  1.0000
  H   H128      1.0  0.76792  0.59366  0.24976  1.0000
  H   H129      1.0  0.49979  0.42226  0.53985  1.0000
  H   H130      1.0  0.43661  0.11317  0.54113  1.0000
  S   S30       1.0  0.56913  0.59739  0.46726  1.0000
  H   H131      1.0  0.64427  0.35017  0.54099  1.0000
  C   C106      1.0  0.50318  0.23289  0.48407  1.0000
  H   H132      1.0  0.84168  0.56572  0.45312  1.0000
  H   H133      1.0  0.76312  0.16616  0.39060  1.0000
  C   C107      1.0  0.44990  0.18045  0.54088  1.0000
  H   H134      1.0  0.55195  0.25885  0.32019  1.0000
  C   C108      1.0  0.72084  0.21479  0.48848  1.0000
  S   S31       1.0  0.59352  0.38711  0.41699  1.0000
  H   H135      1.0  0.87177  0.44015  0.42488  1.0000
  Fe  Fe16      1.0  0.63031  0.51448  0.46341  1.0000
  C   C109      1.0  0.87641  0.46875  0.47627  1.0000
  C   C110      1.0  0.48664  0.35497  0.54002  1.0000
  H   H136      1.0  0.77117  0.26937  0.48299  1.0000
  H   H137      1.0  0.54121  0.10212  0.33722  1.0000
  H   H138      1.0  0.44922  0.53367  0.38438  1.0000
  C   C111      1.0  0.85883  0.53942  0.49243  1.0000
  C   C112      1.0  0.43955  0.56595  0.34257  1.0000
  C   C113      1.0  0.52210  0.32036  0.48397  1.0000
  C   C114      1.0  0.71685  0.15598  0.43500  1.0000
  H   H139      1.0  0.53122  0.20571  0.44174  1.0000
  H   H140      1.0  0.73829  0.37285  0.52959  1.0000
  C   C115      1.0  0.66133  0.20342  0.54772  1.0000
  H   H141      1.0  0.55016  0.11492  0.59301  1.0000
  H   H142      1.0  0.58310  0.18814  0.69182  1.0000
  H   H143      1.0  0.40718  0.33011  0.64049  1.0000
  H   H144      1.0  0.60426  0.29835  0.69936  1.0000
  C   C116      1.0  0.51023  0.46703  0.78906  1.0000
  C   C117      1.0  0.59887  0.24800  0.65982  1.0000
  C   C118      1.0  0.88996  0.54404  0.60804  1.0000
  H   H145      1.0  0.55323  0.24415  0.63571  1.0000
  C   C119      1.0  0.86463  0.57635  0.55878  1.0000
  C   C120      1.0  0.76716  0.54562  0.78720  1.0000
  N   N10       1.0  0.66696  0.26671  0.60370  1.0000
  H   H146      1.0  0.56870  0.49496  0.77136  1.0000
  C   C121      1.0  0.47199  0.38421  0.77321  1.0000
  C   C122      1.0  0.59805  0.12903  0.55031  1.0000
  C   C123      1.0  0.68603  0.35106  0.56966  1.0000
  C   C124      1.0  0.41390  0.57169  0.63010  1.0000
  H   H147      1.0  0.83645  0.12193  0.58398  1.0000
  H   H148      1.0  0.72231  0.48877  0.77991  1.0000
  S   S32       1.0  0.63647  0.52830  0.57949  1.0000
  H   H149      1.0  0.73514  0.32315  0.67821  1.0000
  C   C125      1.0  0.41612  0.21549  0.59806  1.0000
  H   H150      1.0  0.50050  0.34730  0.74382  1.0000
  H   H151      1.0  0.69144  0.40064  0.61003  1.0000
  H   H152      1.0  0.77710  0.28344  0.60212  1.0000
  H   H153      1.0  0.70995  0.21061  0.67128  1.0000
  C   C126      1.0  0.72453  0.27099  0.64045  1.0000
  C   C127      1.0  0.43391  0.30267  0.59712  1.0000
  H   H154      1.0  0.77492  0.30609  0.78842  1.0000
  H   H155      1.0  0.66647  0.33846  0.79131  1.0000
  C   C128      1.0  0.39694  0.34797  0.79644  1.0000
  H   H156      1.0  0.65191  0.12089  0.96291  1.0000
  S   S33       1.0  0.51960  0.25833  0.86789  1.0000
  C   C129      1.0  0.55379  0.52497  0.99598  1.0000
  S   S34       1.0  0.79281  0.17866  0.86405  1.0000
  C   C130      1.0  0.71966  0.20918  0.87345  1.0000
  C   C131      1.0  0.47340  0.51430  0.82761  1.0000
  H   H157      1.0  0.54337  0.15102  0.96374  1.0000
  H   H158      1.0  0.73734  0.40824  0.97659  1.0000
  H   H159      1.0  0.72393  0.53953  0.94760  1.0000
  Fe  Fe17      1.0  0.44315  0.24355  0.97552  1.0000
  H   H160      1.0  0.62666  0.56259  0.89104  1.0000
  C   C132      1.0  0.59395  0.18546  0.92590  1.0000
  H   H161      1.0  0.40267  0.11519  0.80225  1.0000
  H   H162      1.0  0.50565  0.57821  0.83869  1.0000
  C   C133      1.0  0.72447  0.27259  0.82672  1.0000
  H   H163      1.0  0.44019  0.59041  0.95362  1.0000
  C   C134      1.0  0.72972  0.45012  0.01902  1.0000
  C   C135      1.0  0.65517  0.16766  0.92477  1.0000
  C   C136      1.0  0.72207  0.52393  0.00275  1.0000
  C   C137      1.0  0.66329  0.29021  0.82780  1.0000
  H   H164      1.0  0.54711  0.45937  0.99274  1.0000
  C   C138      1.0  0.59757  0.24476  0.87562  1.0000
  C   C139      1.0  0.59873  0.58329  0.93831  1.0000
  C   C140      1.0  0.82931  0.54080  0.80157  1.0000
  H   H165      1.0  0.83100  0.47890  0.80376  1.0000
  C   C141      1.0  0.39669  0.48030  0.85052  1.0000
  H   H166      1.0  0.87510  0.04182  0.26680  1.0000
  H   H167      1.0  0.73816  0.73207  0.12549  1.0000
  C   C142      1.0  0.45751  0.87609  0.10394  1.0000
  C   C143      1.0  0.41345  0.65057  0.23696  1.0000
  H   H168      1.0  0.54616  0.92994  0.29006  1.0000
  H   H169      1.0  0.62322  0.60860  0.29034  1.0000
  H   H170      1.0  0.68117  0.73149  0.21107  1.0000
  H   H171      1.0  0.50369  0.65942  0.11000  1.0000
  H   H172      1.0  0.53260  0.04381  0.25684  1.0000
  H   H173      1.0  0.51410  0.75208  0.24387  1.0000
  H   H174      1.0  0.75915  0.69291  0.26346  1.0000
  H   H175      1.0  0.81295  0.67653  0.18070  1.0000
  N   N11       1.0  0.69834  0.61530  0.18938  1.0000
  H   H176      1.0  0.40687  0.68782  0.19683  1.0000
  H   H177      1.0  0.64112  0.67279  0.14136  1.0000
  S   S35       1.0  0.53364  0.94354  0.13451  1.0000
  C   C144      1.0  0.47588  0.68888  0.26387  1.0000
  C   C145      1.0  0.68927  0.69095  0.16541  1.0000
  H   H178      1.0  0.65364  0.07603  0.20951  1.0000
  H   H179      1.0  0.65125  0.88917  0.26576  1.0000
  C   C146      1.0  0.76217  0.64563  0.22236  1.0000
  H   H180      1.0  0.47160  0.09164  0.29152  1.0000
  S   S36       1.0  0.87525  0.98034  0.10520  1.0000
  S   S37       1.0  0.68919  0.86356  0.05961  1.0000
  Fe  Fe18      1.0  0.63750  0.95593  0.05708  1.0000
  C   C147      1.0  0.52960  0.63737  0.06249  1.0000
  S   S38       1.0  0.74163  0.06825  0.05139  1.0000
  C   C148      1.0  0.52946  0.10144  0.28286  1.0000
  S   S39       1.0  0.73823  0.61883  0.42233  1.0000
  Fe  Fe19      1.0  0.67751  0.70354  0.43734  1.0000
  H   H181      1.0  0.75378  0.03432  0.50862  1.0000
  Fe  Fe20      1.0  0.73998  0.63930  0.53888  1.0000
  H   H182      1.0  0.54540  0.01531  0.49907  1.0000
  H   H183      1.0  0.83843  0.81085  0.40616  1.0000
  H   H184      1.0  0.65051  0.03900  0.39690  1.0000
  C   C149      1.0  0.55638  0.90059  0.33296  1.0000
  C   C150      1.0  0.59457  0.07088  0.49631  1.0000
  C   C151      1.0  0.52212  0.84414  0.45609  1.0000
  C   C152      1.0  0.61575  0.87708  0.31907  1.0000
  H   H185      1.0  0.53680  0.67716  0.33784  1.0000
  C   C153      1.0  0.62799  0.83612  0.37336  1.0000
  H   H186      1.0  0.58941  0.78572  0.48347  1.0000
  H   H187      1.0  0.88159  0.92046  0.31950  1.0000
  H   H188      1.0  0.81228  0.88494  0.52080  1.0000
  H   H189      1.0  0.48600  0.83149  0.50898  1.0000
  C   C154      1.0  0.86726  0.89208  0.52508  1.0000
  S   S40       1.0  0.69996  0.80271  0.35405  1.0000
  C   C155      1.0  0.51049  0.88598  0.40169  1.0000
  S   S41       1.0  0.44173  0.92495  0.41886  1.0000
  C   C156      1.0  0.65364  0.08429  0.43867  1.0000
  C   C157      1.0  0.58069  0.81857  0.44168  1.0000
  C   C158      1.0  0.89103  0.04729  0.31808  1.0000
  H   H190      1.0  0.46212  0.66499  0.54162  1.0000
  C   C159      1.0  0.48887  0.64671  0.31653  1.0000
  H   H191      1.0  0.52697  0.96078  0.74299  1.0000
  N   N12       1.0  0.58102  0.87554  0.71156  1.0000
  H   H192      1.0  0.48187  0.78088  0.69083  1.0000
  H   H193      1.0  0.68763  0.98556  0.77432  1.0000
  C   C160      1.0  0.76529  0.05858  0.68361  1.0000
  C   C161      1.0  0.69915  0.99507  0.71638  1.0000
  H   H194      1.0  0.48502  0.86123  0.79372  1.0000
  C   C162      1.0  0.53413  0.83023  0.66156  1.0000
  C   C163      1.0  0.59732  0.81232  0.74716  1.0000
  H   H195      1.0  0.88540  0.94385  0.56197  1.0000
  H   H196      1.0  0.63829  0.92386  0.56306  1.0000
  H   H197      1.0  0.56021  0.79608  0.62149  1.0000
  C   C164      1.0  0.76301  0.62387  0.78094  1.0000
  S   S42       1.0  0.83720  0.66012  0.58205  1.0000
  H   H198      1.0  0.62628  0.83920  0.79083  1.0000
  H   H199      1.0  0.80237  0.09573  0.71643  1.0000
  H   H200      1.0  0.71532  0.62795  0.76892  1.0000
  H   H201      1.0  0.63181  0.78645  0.70783  1.0000
  C   C165      1.0  0.53830  0.91092  0.76720  1.0000
  S   S43       1.0  0.48862  0.61283  0.66966  1.0000
  H   H202      1.0  0.54720  0.75758  0.77212  1.0000
  C   C166      1.0  0.64991  0.94385  0.67529  1.0000
  C   C167      1.0  0.41702  0.60738  0.56424  1.0000
  C   C168      1.0  0.73802  0.02365  0.56681  1.0000
  C   C169      1.0  0.67147  0.95998  0.59908  1.0000
  S   S44       1.0  0.41790  0.96102  0.62855  1.0000
  H   H203      1.0  0.51978  0.87395  0.63273  1.0000
  C   C170      1.0  0.78470  0.07300  0.60899  1.0000
  Fe  Fe21      1.0  0.58252  0.61908  0.58090  1.0000
  H   H204      1.0  0.89034  0.87502  0.68267  1.0000
  H   H205      1.0  0.86256  0.83372  0.55286  1.0000
  S   S45       1.0  0.68663  0.73205  0.55116  1.0000
  H   H206      1.0  0.81661  0.75815  0.78495  1.0000
  C   C171      1.0  0.82045  0.69749  0.78983  1.0000
  H   H207      1.0  0.56612  0.93884  0.81137  1.0000
  H   H208      1.0  0.83675  0.85436  0.00059  1.0000
  H   H209      1.0  0.86064  0.72503  0.97505  1.0000
  H   H210      1.0  0.51975  0.84266  0.01095  1.0000
  C   C172      1.0  0.40659  0.77386  0.01934  1.0000
  H   H211      1.0  0.57732  0.75866  0.00695  1.0000
  H   H212      1.0  0.43795  0.65302  0.84208  1.0000
  S   S46       1.0  0.67438  0.74666  0.88003  1.0000
  C   C173      1.0  0.46652  0.83231  0.04165  1.0000
  C   C174      1.0  0.88286  0.69362  0.80411  1.0000
  H   H213      1.0  0.48032  0.06222  0.85065  1.0000
  C   C175      1.0  0.88924  0.61486  0.81031  1.0000
  S   S47       1.0  0.81485  0.97347  0.92113  1.0000
  Fe  Fe22      1.0  0.75574  0.06022  0.93185  1.0000
  Fe  Fe23      1.0  0.70493  0.86779  0.93886  1.0000
  C   C176      1.0  0.57226  0.69424  0.00442  1.0000
  C   C177      1.0  0.88214  0.76527  0.01658  1.0000
  H   H214      1.0  0.41474  0.74009  0.97120  1.0000
  S   S48       1.0  0.64795  0.95492  0.93736  1.0000
  Fe  Fe24      1.0  0.79422  0.97510  0.04206  1.0000
  C   C178      1.0  0.60973  0.66881  0.94391  1.0000
  C   C179      1.0  0.42195  0.03242  0.86894  1.0000
  C   C180      1.0  0.86864  0.83876  0.03106  1.0000
  H   H215      1.0  0.42502  0.94306  0.94261  1.0000
  H   H216      1.0  0.70593  0.63388  0.04044  1.0000
