data_image0
_chemical_formula_structural       CHC2HCSHSH2CHFe2H3CH2SFeH2C2SHC2H2FeH2FeH4SHCSHSNHCHCH2C2H3CH2CH2CHC2HC2SHCFeHSCH2CFeHSC2H2CHCHSCNH2SH3C2H2CH3C4H3NH2C6H4CH5SH6CHCH2NHFeSCH2C2HNSH3CH3CHCHCHFeC2SH2CH2CHCHCHC2H3SH6CHSHCHC2HCH2NHCH3CH3CHFeHC2HCNHCHC2H8CHCH2CHSH5CH2CHC2HCH2NSH4CH3CH4CHC2H2S2H2S2CHCH3C2FeCHCHSH3FeCHCH5CHC2H2S3FeHCFeH3SC2SCHC3HC3FeCH4C2H2SCSH2CHCHFeCSC2SH3SFeH4CHSCHC2SCHCH2C2H5FeHCHCHCNCNFeH2CHFeCSH4C2SH5C3H3SH2CHC2H3
_chemical_formula_sum              "C140 H240 S40 Fe20 N10"
_cell_length_a       26.6674
_cell_length_b       28.706
_cell_length_c       26.9604
_cell_angle_alpha    90.4292
_cell_angle_beta     85.0027
_cell_angle_gamma    100.947

_space_group_name_H-M_alt    "P 1"
_space_group_IT_number       1

loop_
  _space_group_symop_operation_xyz
  'x, y, z'

loop_
  _atom_site_type_symbol
  _atom_site_label
  _atom_site_symmetry_multiplicity
  _atom_site_fract_x
  _atom_site_fract_y
  _atom_site_fract_z
  _atom_site_occupancy
  C   C1        1.0  0.17439  0.10835  0.04471  1.0000
  H   H1        1.0  0.09135  0.07672  0.12672  1.0000
  C   C2        1.0  0.18807  0.01961  0.31133  1.0000
  C   C3        1.0  0.15695  0.15139  0.04230  1.0000
  H   H2        1.0  0.03216  0.12434  0.16319  1.0000
  C   C4        1.0  0.15415  0.03625  0.34691  1.0000
  S   S1        1.0  0.20798  0.05156  0.25523  1.0000
  H   H3        1.0  0.05168  0.01521  0.30406  1.0000
  S   S2        1.0  0.28273  0.04849  0.12164  1.0000
  H   H4        1.0  0.20240  0.10427  0.07030  1.0000
  H   H5        1.0  0.05481  0.05991  0.07547  1.0000
  C   C5        1.0  0.02890  0.11480  0.12333  1.0000
  H   H6        1.0  0.48142  0.09129  0.14854  1.0000
  Fe  Fe1       1.0  0.22307  0.00345  0.07867  1.0000
  Fe  Fe2       1.0  0.23734  0.01181  0.18975  1.0000
  H   H7        1.0  0.14149  0.06909  0.34010  1.0000
  H   H8        1.0  0.17160  0.18036  0.06620  1.0000
  H   H9        1.0  0.05573  0.14371  0.10207  1.0000
  C   C6        1.0  0.05163  0.06966  0.11510  1.0000
  H   H10       1.0  0.02625  0.21114  0.11975  1.0000
  H   H11       1.0  0.03011  0.03944  0.13820  1.0000
  S   S3        1.0  0.40697  0.98985  0.09097  1.0000
  Fe  Fe3       1.0  0.32278  0.98555  0.11929  1.0000
  H   H12       1.0  0.10957  0.02308  0.41804  1.0000
  H   H13       1.0  0.08614  0.10246  0.63662  1.0000
  C   C7        1.0  0.13593  0.01020  0.39097  1.0000
  C   C8        1.0  0.06574  0.11239  0.67032  1.0000
  S   S4        1.0  0.03876  0.01915  0.51860  1.0000
  H   H14       1.0  0.10986  0.18381  0.67093  1.0000
  C   C9        1.0  0.07924  0.15826  0.68990  1.0000
  C   C10       1.0  0.01965  0.14193  0.55598  1.0000
  H   H15       1.0  0.05023  0.12297  0.54094  1.0000
  H   H16       1.0  0.03465  0.16226  0.58827  1.0000
  Fe  Fe4       1.0  0.01632  0.99210  0.59747  1.0000
  H   H17       1.0  0.01393  0.16609  0.52603  1.0000
  H   H18       1.0  0.12458  0.08980  0.75554  1.0000
  Fe  Fe5       1.0  0.05073  0.22727  0.94785  1.0000
  H   H19       1.0  0.13206  0.21467  0.86071  1.0000
  H   H20       1.0  0.17814  0.15902  0.90629  1.0000
  H   H21       1.0  0.17535  0.24110  0.90448  1.0000
  H   H22       1.0  0.07365  0.12352  0.95339  1.0000
  S   S5        1.0  0.07485  0.28779  0.89330  1.0000
  H   H23       1.0  0.13580  0.04818  0.80170  1.0000
  C   C11       1.0  0.22182  0.10851  0.82917  1.0000
  S   S6        1.0  0.01912  0.17548  0.89110  1.0000
  H   H24       1.0  0.26261  0.12699  0.82786  1.0000
  S   S7        1.0  0.07416  0.22681  0.76097  1.0000
  N   N1        1.0  0.18698  0.14396  0.82739  1.0000
  H   H25       1.0  0.25362  0.23063  0.74515  1.0000
  C   C12       1.0  0.11684  0.07845  0.79508  1.0000
  H   H26       1.0  0.27936  0.17685  0.74820  1.0000
  C   C13       1.0  0.19897  0.17035  0.77837  1.0000
  H   H27       1.0  0.23957  0.05108  0.87274  1.0000
  H   H28       1.0  0.21953  0.09660  0.91039  1.0000
  C   C14       1.0  0.11976  0.07664  0.98052  1.0000
  C   C15       1.0  0.25420  0.19887  0.76828  1.0000
  H   H29       1.0  0.10528  0.04768  0.95660  1.0000
  H   H30       1.0  0.27182  0.21265  0.80238  1.0000
  H   H31       1.0  0.23667  0.18806  0.87665  1.0000
  C   C16       1.0  0.21237  0.07608  0.87583  1.0000
  H   H32       1.0  0.19466  0.24775  0.83929  1.0000
  H   H33       1.0  0.10645  0.14570  0.82440  1.0000
  C   C17       1.0  0.13132  0.11980  0.83124  1.0000
  H   H34       1.0  0.17145  0.19429  0.77313  1.0000
  H   H35       1.0  0.11839  0.10592  0.86955  1.0000
  C   C18       1.0  0.15625  0.07110  0.01343  1.0000
  H   H36       1.0  0.07496  0.06489  0.80112  1.0000
  C   C19       1.0  0.10196  0.11955  0.97850  1.0000
  C   C20       1.0  0.05416  0.17074  0.73462  1.0000
  H   H37       1.0  0.19326  0.14537  0.74676  1.0000
  C   C21       1.0  0.19531  0.17720  0.87083  1.0000
  C   C22       1.0  0.12115  0.15729  0.00888  1.0000
  S   S8        1.0  0.10073  0.21196  0.00690  1.0000
  H   H38       1.0  0.21985  0.08561  0.79562  1.0000
  C   C23       1.0  0.17291  0.22264  0.86810  1.0000
  Fe  Fe6       1.0  0.03635  0.23707  0.83781  1.0000
  H   H39       1.0  0.17324  0.05423  0.87976  1.0000
  S   S9        1.0  0.17891  0.01755  0.01400  1.0000
  C   C24       1.0  0.01456  0.13768  0.75881  1.0000
  H   H40       1.0  0.01680  0.00215  0.85603  1.0000
  H   H41       1.0  0.01924  0.47579  0.96842  1.0000
  C   C25       1.0  0.02735  0.07891  0.69574  1.0000
  Fe  Fe7       1.0  0.22224  0.91533  0.14107  1.0000
  H   H42       1.0  0.36074  0.75314  0.12752  1.0000
  S   S10       1.0  0.17662  0.84102  0.15122  1.0000
  C   C26       1.0  0.16575  0.80972  0.09563  1.0000
  C   C27       1.0  0.12260  0.77343  0.09377  1.0000
  H   H43       1.0  0.09595  0.76493  0.12648  1.0000
  H   H44       1.0  0.08719  0.87479  0.09377  1.0000
  C   C28       1.0  0.35762  0.77578  0.09494  1.0000
  H   H45       1.0  0.02568  0.95636  0.10634  1.0000
  C   C29       1.0  0.07705  0.93228  0.27666  1.0000
  H   H46       1.0  0.49372  0.81229  0.14877  1.0000
  S   S11       1.0  0.28114  0.95205  0.19046  1.0000
  C   C30       1.0  0.33665  0.85186  0.13053  1.0000
  N   N2        1.0  0.04756  0.88968  0.03024  1.0000
  H   H47       1.0  0.30272  0.84867  0.10886  1.0000
  H   H48       1.0  0.32812  0.87123  0.03227  1.0000
  S   S12       1.0  0.26652  0.94393  0.07017  1.0000
  H   H49       1.0  0.40661  0.81000  0.17414  1.0000
  H   H50       1.0  0.41788  0.89128  0.06666  1.0000
  H   H51       1.0  0.23369  0.84757  0.05446  1.0000
  C   C31       1.0  0.45130  0.96188  0.17276  1.0000
  C   C32       1.0  0.39960  0.85432  0.05788  1.0000
  H   H52       1.0  0.48742  0.93983  0.23497  1.0000
  H   H53       1.0  0.27958  0.84530  0.19452  1.0000
  C   C33       1.0  0.31666  0.83409  0.18385  1.0000
  H   H54       1.0  0.29364  0.72373  0.07143  1.0000
  H   H55       1.0  0.23078  0.96429  0.29349  1.0000
  H   H56       1.0  0.34376  0.85009  0.21110  1.0000
  C   C34       1.0  0.50273  0.96841  0.09386  1.0000
  C   C35       1.0  0.20015  0.82022  0.05333  1.0000
  C   C36       1.0  0.45658  0.97221  0.12176  1.0000
  C   C37       1.0  0.07217  0.90447  0.07760  1.0000
  H   H57       1.0  0.07738  0.95694  0.24483  1.0000
  H   H58       1.0  0.11182  0.86845  0.28436  1.0000
  H   H59       1.0  0.38188  0.76318  0.06388  1.0000
  N   N3        1.0  0.37730  0.82760  0.10522  1.0000
  H   H60       1.0  0.01464  0.81953  0.10847  1.0000
  H   H61       1.0  0.35137  0.89082  0.13278  1.0000
  C   C38       1.0  0.03793  0.92390  0.11875  1.0000
  C   C39       1.0  0.11372  0.74812  0.04951  1.0000
  C   C40       1.0  0.10996  0.89621  0.25683  1.0000
  C   C41       1.0  0.46914  0.81491  0.11801  1.0000
  C   C42       1.0  0.30130  0.76166  0.08234  1.0000
  C   C43       1.0  0.41984  0.83126  0.13947  1.0000
  H   H62       1.0  0.04034  0.82827  0.33923  1.0000
  H   H63       1.0  0.29232  0.78217  0.05097  1.0000
  H   H64       1.0  0.14995  0.91522  0.24732  1.0000
  H   H65       1.0  0.31001  0.79491  0.18724  1.0000
  C   C44       1.0  0.49180  0.94773  0.19545  1.0000
  H   H66       1.0  0.27379  0.76502  0.11490  1.0000
  H   H67       1.0  0.46097  0.77960  0.10034  1.0000
  H   H68       1.0  0.09865  0.95397  0.30479  1.0000
  H   H69       1.0  0.09638  0.87952  0.22194  1.0000
  H   H70       1.0  0.43150  0.86842  0.15192  1.0000
  S   S13       1.0  0.17531  0.97201  0.14667  1.0000
  H   H71       1.0  0.10651  0.93298  0.06974  1.0000
  H   H72       1.0  0.06043  0.93381  0.15127  1.0000
  H   H73       1.0  0.43058  0.83808  0.03870  1.0000
  H   H74       1.0  0.02101  0.84236  0.26637  1.0000
  H   H75       1.0  0.02109  0.78702  0.05128  1.0000
  H   H76       1.0  0.49223  0.84145  0.09121  1.0000
  C   C45       1.0  0.02169  0.90020  0.35238  1.0000
  H   H77       1.0  0.41608  0.96476  0.19474  1.0000
  C   C46       1.0  0.20441  0.97723  0.32045  1.0000
  H   H78       1.0  0.50710  0.97621  0.05433  1.0000
  H   H79       1.0  0.08035  0.72017  0.04812  1.0000
  N   N4        1.0  0.02285  0.91281  0.29803  1.0000
  H   H80       1.0  0.09545  0.70493  0.63510  1.0000
  Fe  Fe8       1.0  0.06253  0.94902  0.50316  1.0000
  S   S14       1.0  0.04866  0.92599  0.58335  1.0000
  C   C47       1.0  0.15271  0.96803  0.40022  1.0000
  H   H81       1.0  0.11077  0.63842  0.60111  1.0000
  H   H82       1.0  0.13312  0.61104  0.65328  1.0000
  C   C48       1.0  0.05886  0.74959  0.68357  1.0000
  C   C49       1.0  0.10047  0.61052  0.63040  1.0000
  H   H83       1.0  0.09474  0.57593  0.61086  1.0000
  N   N5        1.0  0.05151  0.65865  0.69286  1.0000
  S   S15       1.0  0.13152  0.93461  0.45520  1.0000
  H   H84       1.0  0.20029  0.91923  0.37199  1.0000
  H   H85       1.0  0.02864  0.84285  0.40191  1.0000
  H   H86       1.0  0.04213  0.93070  0.37305  1.0000
  C   C50       1.0  0.05833  0.70091  0.65836  1.0000
  H   H87       1.0  0.03886  0.77166  0.66127  1.0000
  H   H88       1.0  0.09884  0.76880  0.68617  1.0000
  H   H89       1.0  0.02947  0.69583  0.63035  1.0000
  C   C51       1.0  0.05032  0.61445  0.66202  1.0000
  H   H90       1.0  0.08832  0.87002  0.36868  1.0000
  C   C52       1.0  0.04659  0.85812  0.36540  1.0000
  H   H91       1.0  0.03921  0.58196  0.68589  1.0000
  C   C53       1.0  0.18709  0.95176  0.36493  1.0000
  H   H92       1.0  0.02022  0.61149  0.63546  1.0000
  Fe  Fe9       1.0  0.05812  0.70813  0.93321  1.0000
  C   C54       1.0  0.13617  0.89617  0.98062  1.0000
  C   C55       1.0  0.02142  0.92644  0.95121  1.0000
  S   S16       1.0  0.04483  0.69682  0.85280  1.0000
  H   H93       1.0  0.10438  0.59188  0.73850  1.0000
  H   H94       1.0  0.06588  0.85143  0.96329  1.0000
  C   C56       1.0  0.14879  0.75828  0.00751  1.0000
  H   H95       1.0  0.13090  0.63396  0.78276  1.0000
  H   H96       1.0  0.09166  0.83424  0.01673  1.0000
  C   C57       1.0  0.19219  0.79406  0.00968  1.0000
  H   H97       1.0  0.21943  0.80188  0.97729  1.0000
  C   C58       1.0  0.03747  0.93330  0.00504  1.0000
  H   H98       1.0  0.13296  0.92827  0.95954  1.0000
  C   C59       1.0  0.09803  0.62377  0.75970  1.0000
  H   H99       1.0  0.07222  0.96196  0.00371  1.0000
  C   C60       1.0  0.08348  0.86559  0.99742  1.0000
  C   C61       1.0  0.09544  0.66597  0.72543  1.0000
  H   H100      1.0  0.15791  0.87487  0.95531  1.0000
  H   H101      1.0  0.06326  0.61433  0.78596  1.0000
  H   H102      1.0  0.01298  0.88755  0.75009  1.0000
  S   S17       1.0  0.13978  0.72651  0.95216  1.0000
  H   H103      1.0  0.09402  0.69709  0.75005  1.0000
  H   H104      1.0  0.05453  0.94000  0.92389  1.0000
  H   H105      1.0  0.03914  0.74741  0.72145  1.0000
  H   H106      1.0  0.35199  0.82322  0.99895  1.0000
  H   H107      1.0  0.15958  0.90629  0.01243  1.0000
  H   H108      1.0  0.38271  0.88330  0.98868  1.0000
  C   C62       1.0  0.36261  0.85764  0.01789  1.0000
  H   H109      1.0  0.13292  0.67542  0.70275  1.0000
  S   S18       1.0  0.79744  0.09499  0.14290  1.0000
  H   H110      1.0  0.83643  0.18362  0.09126  1.0000
  C   C63       1.0  0.95628  0.15552  0.13169  1.0000
  H   H111      1.0  0.66447  0.06169  0.24995  1.0000
  C   C64       1.0  0.83604  0.15520  0.06463  1.0000
  C   C65       1.0  0.81801  0.10809  0.08009  1.0000
  H   H112      1.0  0.96750  0.23260  0.12784  1.0000
  C   C66       1.0  0.55828  0.08076  0.15998  1.0000
  H   H113      1.0  0.91134  0.02872  0.20003  1.0000
  H   H114      1.0  0.69761  0.20421  0.13420  1.0000
  N   N6        1.0  0.61456  0.09511  0.14256  1.0000
  H   H115      1.0  0.92317  0.04717  0.03509  1.0000
  C   C67       1.0  0.64342  0.06809  0.17435  1.0000
  H   H116      1.0  0.91495  0.15349  0.12639  1.0000
  H   H117      1.0  0.55019  0.09358  0.19838  1.0000
  H   H118      1.0  0.54684  0.04156  0.16259  1.0000
  C   C68       1.0  0.81732  0.07155  0.04543  1.0000
  H   H119      1.0  0.63289  0.02923  0.16747  1.0000
  H   H120      1.0  0.60919  0.16064  0.18085  1.0000
  H   H121      1.0  0.68530  0.07664  0.16467  1.0000
  C   C69       1.0  0.63460  0.07511  0.23101  1.0000
  H   H122      1.0  0.89934  0.06805  0.11985  1.0000
  Fe  Fe10      1.0  0.76817  0.01662  0.15332  1.0000
  H   H123      1.0  0.70393  0.07499  0.08422  1.0000
  C   C70       1.0  0.52019  0.09845  0.12809  1.0000
  C   C71       1.0  0.93854  0.06906  0.13167  1.0000
  H   H124      1.0  0.91039  0.09020  0.20619  1.0000
  C   C72       1.0  0.97263  0.11437  0.05397  1.0000
  N   N7        1.0  0.97464  0.11244  0.10996  1.0000
  H   H125      1.0  0.94973  0.03589  0.11712  1.0000
  C   C73       1.0  0.98573  0.20395  0.11069  1.0000
  H   H126      1.0  0.63695  0.11289  0.24106  1.0000
  C   C74       1.0  0.63000  0.14830  0.14711  1.0000
  C   C75       1.0  0.93308  0.06464  0.18902  1.0000
  H   H127      1.0  0.59707  0.05410  0.24608  1.0000
  H   H128      1.0  0.00817  0.13652  0.03579  1.0000
  H   H129      1.0  0.60694  0.04104  0.08598  1.0000
  H   H130      1.0  0.97057  0.06903  0.20497  1.0000
  H   H131      1.0  0.71453  0.14750  0.13419  1.0000
  H   H132      1.0  0.69487  0.17426  0.19172  1.0000
  H   H133      1.0  0.61825  0.16647  0.11490  1.0000
  H   H134      1.0  0.80421  0.03504  0.05707  1.0000
  C   C76       1.0  0.62164  0.07985  0.08911  1.0000
  H   H135      1.0  0.53058  0.13711  0.12046  1.0000
  C   C77       1.0  0.68747  0.16850  0.15202  1.0000
  H   H136      1.0  0.95892  0.15731  0.17264  1.0000
  H   H137      1.0  0.51632  0.07859  0.09268  1.0000
  C   C78       1.0  0.67661  0.09015  0.06368  1.0000
  H   H138      1.0  0.83362  0.00108  0.29576  1.0000
  S   S19       1.0  0.72540  0.98483  0.22409  1.0000
  H   H139      1.0  0.98456  0.20706  0.06992  1.0000
  H   H140      1.0  0.94117  0.13232  0.04431  1.0000
  H   H141      1.0  0.98711  0.02443  0.31203  1.0000
  H   H142      1.0  0.59910  0.09757  0.06490  1.0000
  H   H143      1.0  0.69057  0.12870  0.05712  1.0000
  C   C79       1.0  0.01229  0.99894  0.31916  1.0000
  H   H144      1.0  0.99024  0.04372  0.03267  1.0000
  H   H145      1.0  0.01079  0.99523  0.36024  1.0000
  C   C80       1.0  0.95430  0.20440  0.63624  1.0000
  H   H146      1.0  0.95655  0.13366  0.66161  1.0000
  C   C81       1.0  0.88192  0.05129  0.64533  1.0000
  C   C82       1.0  0.86975  0.00820  0.36506  1.0000
  H   H147      1.0  0.89479  0.14822  0.66200  1.0000
  C   C83       1.0  0.93195  0.15060  0.63887  1.0000
  H   H148      1.0  0.87418  0.04643  0.36572  1.0000
  H   H149      1.0  0.96263  0.08180  0.53902  1.0000
  N   N8        1.0  0.92403  0.12458  0.59023  1.0000
  S   S20       1.0  0.91629  0.01733  0.45278  1.0000
  H   H150      1.0  0.92503  0.22463  0.62607  1.0000
  H   H151      1.0  0.87426  0.16995  0.56683  1.0000
  H   H152      1.0  0.87767  0.05856  0.56688  1.0000
  H   H153      1.0  0.86555  0.10350  0.50357  1.0000
  C   C84       1.0  0.88012  0.08283  0.59946  1.0000
  H   H154      1.0  0.85097  0.01939  0.64482  1.0000
  H   H155      1.0  0.84272  0.09503  0.60418  1.0000
  H   H156      1.0  0.91841  0.03847  0.64517  1.0000
  C   C85       1.0  0.90913  0.15646  0.55206  1.0000
  H   H157      1.0  0.93253  0.12289  0.48179  1.0000
  H   H158      1.0  0.88764  0.16084  0.47645  1.0000
  H   H159      1.0  0.98886  0.21421  0.61008  1.0000
  H   H160      1.0  0.98175  0.08221  0.60006  1.0000
  C   C86       1.0  0.97092  0.10525  0.57153  1.0000
  H   H161      1.0  0.93920  0.18857  0.54415  1.0000
  C   C87       1.0  0.89822  0.13397  0.50095  1.0000
  C   C88       1.0  0.88719  0.98451  0.40365  1.0000
  H   H162      1.0  0.96528  0.21661  0.67375  1.0000
  H   H163      1.0  0.87522  0.06964  0.68094  1.0000
  S   S21       1.0  0.01262  0.01956  0.67670  1.0000
  S   S22       1.0  0.97534  0.24749  0.97151  1.0000
  H   H164      1.0  0.85022  0.43107  0.01034  1.0000
  H   H165      1.0  0.96669  0.07455  0.98521  1.0000
  S   S23       1.0  0.99067  0.37864  0.94230  1.0000
  S   S24       1.0  0.87682  0.14097  0.91777  1.0000
  C   C89       1.0  0.85332  0.12901  0.98006  1.0000
  H   H166      1.0  0.97161  0.06629  0.75932  1.0000
  C   C90       1.0  0.83422  0.08206  0.99539  1.0000
  H   H167      1.0  0.93164  0.01851  0.83525  1.0000
  H   H168      1.0  0.83347  0.05366  0.96874  1.0000
  H   H169      1.0  0.95541  0.39706  0.84536  1.0000
  C   C91       1.0  0.77672  0.47228  0.97727  1.0000
  C   C92       1.0  0.00312  0.47496  0.93287  1.0000
  Fe  Fe11      1.0  0.94527  0.20048  0.91000  1.0000
  C   C93       1.0  0.00158  0.09185  0.73970  1.0000
  H   H170      1.0  0.94328  0.47237  0.80698  1.0000
  C   C94       1.0  0.96747  0.43056  0.86349  1.0000
  H   H171      1.0  0.86805  0.20204  0.00288  1.0000
  S   S25       1.0  0.95976  0.25908  0.85254  1.0000
  H   H172      1.0  0.67668  0.07332  0.02642  1.0000
  H   H173      1.0  0.80407  0.46178  0.94820  1.0000
  H   H174      1.0  0.99408  0.14725  0.79252  1.0000
  Fe  Fe12      1.0  0.99680  0.30510  0.91283  1.0000
  C   C95       1.0  0.85417  0.16563  0.01472  1.0000
  H   H175      1.0  0.75857  0.43951  0.99856  1.0000
  C   C96       1.0  0.96042  0.47327  0.84197  1.0000
  H   H176      1.0  0.84393  0.99436  0.81999  1.0000
  H   H177      1.0  0.91780  0.43785  0.00973  1.0000
  H   H178      1.0  0.91010  0.98785  0.75253  1.0000
  H   H179      1.0  0.84996  0.98902  0.90961  1.0000
  H   H180      1.0  0.89190  0.45438  0.95559  1.0000
  C   C97       1.0  0.88677  0.45444  0.99675  1.0000
  H   H181      1.0  0.00594  0.99111  0.79242  1.0000
  C   C98       1.0  0.98825  0.43123  0.90946  1.0000
  C   C99       1.0  0.96292  0.06686  0.02586  1.0000
  H   H182      1.0  0.98805  0.95928  0.25432  1.0000
  H   H183      1.0  0.93162  0.81603  0.26244  1.0000
  S   S26       1.0  0.58797  0.92697  0.19817  1.0000
  S   S27       1.0  0.72144  0.88160  0.16925  1.0000
  S   S28       1.0  0.81436  0.89936  0.27476  1.0000
  Fe  Fe13      1.0  0.76574  0.92207  0.10314  1.0000
  H   H184      1.0  0.99997  0.88265  0.22795  1.0000
  C   C100      1.0  0.53807  0.94420  0.16760  1.0000
  Fe  Fe14      1.0  0.67379  0.93908  0.17346  1.0000
  H   H185      1.0  0.82058  0.55615  0.10162  1.0000
  H   H186      1.0  0.79645  0.82494  0.10748  1.0000
  H   H187      1.0  0.79449  0.49446  0.05149  1.0000
  S   S29       1.0  0.71335  0.97527  0.10323  1.0000
  C   C101      1.0  0.86574  0.76024  0.03116  1.0000
  C   C102      1.0  0.99899  0.87147  0.26755  1.0000
  S   S30       1.0  0.82316  0.96661  0.14819  1.0000
  C   C103      1.0  0.99181  0.95133  0.29409  1.0000
  H   H188      1.0  0.91615  0.87224  0.27718  1.0000
  C   C104      1.0  0.94308  0.84857  0.28449  1.0000
  C   C105      1.0  0.84058  0.93310  0.32459  1.0000
  C   C106      1.0  0.81832  0.81545  0.07453  1.0000
  H   H189      1.0  0.88549  0.49852  0.05967  1.0000
  C   C107      1.0  0.99720  0.85563  0.04096  1.0000
  C   C108      1.0  0.82587  0.84453  0.03207  1.0000
  C   C109      1.0  0.54321  0.95431  0.11655  1.0000
  Fe  Fe15      1.0  0.77582  0.93055  0.21471  1.0000
  C   C110      1.0  0.85789  0.57778  0.08733  1.0000
  H   H190      1.0  0.93799  0.83768  0.32424  1.0000
  H   H191      1.0  0.95945  0.79069  0.07998  1.0000
  H   H192      1.0  0.83129  0.75054  0.10662  1.0000
  H   H193      1.0  0.57833  0.95110  0.09460  1.0000
  C   C111      1.0  0.86458  0.58105  0.02991  1.0000
  C   C112      1.0  0.83796  0.77326  0.07394  1.0000
  H   H194      1.0  0.88995  0.56455  0.10257  1.0000
  H   H195      1.0  0.85911  0.61416  0.10233  1.0000
  S   S31       1.0  0.79922  0.89618  0.03026  1.0000
  C   C113      1.0  0.99909  0.81110  0.07202  1.0000
  S   S32       1.0  0.88932  0.70680  0.03076  1.0000
  H   H196      1.0  0.00387  0.89716  0.13217  1.0000
  H   H197      1.0  0.96760  0.87375  0.06008  1.0000
  C   C114      1.0  0.84668  0.98261  0.32549  1.0000
  H   H198      1.0  0.95209  0.93970  0.31127  1.0000
  C   C115      1.0  0.88104  0.93507  0.40262  1.0000
  H   H199      1.0  0.85261  0.87121  0.36318  1.0000
  Fe  Fe16      1.0  0.96950  0.89347  0.56501  1.0000
  C   C116      1.0  0.94499  0.82130  0.66466  1.0000
  S   S33       1.0  0.93032  0.82425  0.60239  1.0000
  C   C117      1.0  0.97427  0.86047  0.68625  1.0000
  C   C118      1.0  0.92836  0.77938  0.69278  1.0000
  S   S34       1.0  0.93654  0.95855  0.58096  1.0000
  H   H200      1.0  0.95550  0.68876  0.67976  1.0000
  H   H201      1.0  0.89335  0.91634  0.43253  1.0000
  H   H202      1.0  0.98511  0.89365  0.66617  1.0000
  S   S35       1.0  0.98584  0.91029  0.48310  1.0000
  Fe  Fe17      1.0  0.96112  0.97930  0.50137  1.0000
  H   H203      1.0  0.88578  0.92742  0.69207  1.0000
  H   H204      1.0  0.98203  0.89442  0.37102  1.0000
  H   H205      1.0  0.90436  0.74946  0.67669  1.0000
  H   H206      1.0  0.94582  0.62503  0.67167  1.0000
  C   C119      1.0  0.85764  0.90951  0.36340  1.0000
  H   H207      1.0  0.91971  0.64979  0.72673  1.0000
  S   S36       1.0  0.92181  0.68808  0.88658  1.0000
  C   C120      1.0  0.86874  0.54691  0.94749  1.0000
  H   H208      1.0  0.90400  0.60134  0.01969  1.0000
  C   C121      1.0  0.98934  0.85717  0.73432  1.0000
  C   C122      1.0  0.97424  0.81501  0.76190  1.0000
  S   S37       1.0  0.99696  0.64693  0.96113  1.0000
  C   C123      1.0  0.99650  0.51754  0.91121  1.0000
  H   H209      1.0  0.99216  0.94832  0.94562  1.0000
  C   C124      1.0  0.87449  0.79000  0.98917  1.0000
  H   H210      1.0  0.89579  0.78029  0.95597  1.0000
  H   H211      1.0  0.93020  0.74383  0.76308  1.0000
  C   C125      1.0  0.85447  0.83191  0.98964  1.0000
  C   C126      1.0  0.94301  0.77614  0.74147  1.0000
  H   H212      1.0  0.86064  0.85436  0.95687  1.0000
  H   H213      1.0  0.98076  0.84231  0.00594  1.0000
  H   H214      1.0  0.00353  0.67996  0.75540  1.0000
  H   H215      1.0  0.81370  0.93465  0.81698  1.0000
  H   H216      1.0  0.83225  0.84748  0.87140  1.0000
  Fe  Fe18      1.0  0.97928  0.63924  0.88113  1.0000
  H   H217      1.0  0.82562  0.86298  0.80795  1.0000
  C   C127      1.0  0.89125  0.50461  0.01878  1.0000
  H   H218      1.0  0.74555  0.48387  0.95861  1.0000
  C   C128      1.0  0.97441  0.51686  0.86602  1.0000
  H   H219      1.0  0.93366  0.88502  0.81830  1.0000
  C   C129      1.0  0.87310  0.91806  0.73173  1.0000
  N   N9        1.0  0.89660  0.94557  0.82036  1.0000
  C   C130      1.0  0.90024  0.89674  0.83834  1.0000
  N   N10       1.0  0.85515  0.53473  0.00198  1.0000
  Fe  Fe19      1.0  0.98920  0.74604  0.86529  1.0000
  H   H220      1.0  0.84018  0.61357  0.93878  1.0000
  H   H221      1.0  0.86669  0.82370  0.82150  1.0000
  C   C131      1.0  0.85307  0.85648  0.83420  1.0000
  H   H222      1.0  0.90897  0.56675  0.94155  1.0000
  Fe  Fe20      1.0  0.94474  0.70019  0.96443  1.0000
  C   C132      1.0  0.95340  0.65428  0.69866  1.0000
  S   S38       1.0  0.96173  0.56947  0.83992  1.0000
  H   H223      1.0  0.83271  0.92489  0.90980  1.0000
  H   H224      1.0  0.00681  0.94790  0.02706  1.0000
  H   H225      1.0  0.86890  0.51521  0.92396  1.0000
  H   H226      1.0  0.90801  0.89781  0.87833  1.0000
  C   C133      1.0  0.84488  0.95826  0.83448  1.0000
  C   C134      1.0  0.00178  0.65296  0.72558  1.0000
  S   S39       1.0  0.99369  0.81389  0.82244  1.0000
  H   H227      1.0  0.83269  0.92248  0.73778  1.0000
  H   H228      1.0  0.94761  0.94300  0.75338  1.0000
  H   H229      1.0  0.00439  0.88956  0.94176  1.0000
  H   H230      1.0  0.87631  0.88036  0.73598  1.0000
  H   H231      1.0  0.79350  0.56055  0.92863  1.0000
  C   C135      1.0  0.83467  0.57700  0.92396  1.0000
  C   C136      1.0  0.82845  0.95789  0.89090  1.0000
  C   C137      1.0  0.90890  0.95058  0.76466  1.0000
  H   H232      1.0  0.99409  0.61847  0.74600  1.0000
  H   H233      1.0  0.78730  0.96051  0.89664  1.0000
  H   H234      1.0  0.84607  0.58041  0.88329  1.0000
  S   S40       1.0  0.00761  0.76157  0.94375  1.0000
  H   H235      1.0  0.92985  0.97865  0.88572  1.0000
  H   H236      1.0  0.93183  0.52328  0.01075  1.0000
  C   C138      1.0  0.79988  0.51096  0.01368  1.0000
  H   H237      1.0  0.00007  0.94215  0.83604  1.0000
  C   C139      1.0  0.99265  0.97847  0.83103  1.0000
  C   C140      1.0  0.93586  0.98167  0.84442  1.0000
  H   H238      1.0  0.00814  0.55077  0.92982  1.0000
  H   H239      1.0  0.83824  0.60447  0.01966  1.0000
  H   H240      1.0  0.77475  0.53798  0.01556  1.0000
