#------------------------------------------------------------------------------#
# simulation settings
#------------------------------------------------------------------------------#

##### simulation variables

variable        seed 	equal  77229
variable        T       equal  300	    #K
variable        p       equal  0.0 	#bar
variable        damp_T  equal  100 		  	#K
variable        damp_P  equal  1000.0	  	#bar
variable        dT      equal  1.0 		 	#fs
variable        kb      equal  0.0019872041

## system setup ##

units           real
atom_style      full
boundary        p p p

pair_style      lj/cut/coul/long 12.500
bond_style      harmonic
angle_style     hybrid fourier cosine/periodic
dihedral_style  harmonic
improper_style  fourier
kspace_style 	ewald 0.000001

dielectric 	 	1.0
pair_modify 	tail yes mix arithmetic
special_bonds 	lj/coul 0.0 0.0 1.0

read_data 	 	../data.emin_pto-4c_In-3c_BTB_DMA_fe
Reading data file ...
  triclinic box = (1.0127974 1.2506642 1.0737052) to (27.573203 27.546212 27.449243) with tilt (-0.4871608 -0.79355401 -0.31961632)
  reading atoms ...
  456 atoms
  reading velocities ...
  456 velocities
  scanning bonds ...
  scanning angles ...
  scanning dihedrals ...
  scanning impropers ...
  reading bonds ...
  516 bonds
  reading angles ...
  972 angles
  reading dihedrals ...
  1164 dihedrals
  reading impropers ...
  648 impropers
Finding 1-2 1-3 1-4 neighbors ...
     8 = max # of 1-2 neighbors
     9 = max # of 1-3 neighbors
    12 = max # of special neighbors
include 	 	../non_bonded_pto-4c_In-3c_BTB.param
### Parameters for Equilibration ###

### Parameters for MOF ###

mass 1 12.010700000
mass 2 1.007940000
mass 3 114.818000000
mass 4 15.999400000

bond_coeff 1 462.655054 1.379256
bond_coeff 2 391.669513 1.458000
bond_coeff 3 357.440381 1.081418
bond_coeff 4 187.991596 2.033568
bond_coeff 5 646.680887 1.311940

angle_coeff 1 cosine/periodic 111.297508 -1 3
angle_coeff 2 cosine/periodic 102.183280 -1 3
angle_coeff 3 cosine/periodic 57.289016 -1 3
angle_coeff 4 fourier 127.915933 0.343737 0.374972 0.281246
angle_coeff 5 cosine/periodic 77.909182 -1 3
angle_coeff 6 cosine/periodic 131.755710 -1 3
angle_coeff 7 cosine/periodic 187.136328 -1 3

dihedral_coeff 1 3.368555 -1 2
dihedral_coeff 2 1.250000 -1 2
dihedral_coeff 3 6.737110 -1 2

improper_coeff 1 2.000000 1.000000 -1.000000 0.000000 0

### Parameters for Molecule ###

mass 5 12.010700000
mass 6 1.007940000
mass 7 14.006700000

bond_coeff 6 331.069389 1.109401
bond_coeff 7 528.634538 1.451071
bond_coeff 8 527.945261 1.044419

angle_coeff 8 fourier 75.498766 0.343737 0.374972 0.281246
angle_coeff 9 fourier 169.780468 0.343737 0.374972 0.281246
angle_coeff 10 fourier 260.869388 0.317506 0.313225 0.272502
angle_coeff 11 fourier 144.695053 0.317506 0.313225 0.272502
angle_coeff 12 fourier 97.017167 0.317506 0.313225 0.272502

dihedral_coeff 4 0.054250 1 3

pair_coeff 1 1 0.105 3.43085
pair_coeff 1 2 0.0679706 3.00099
pair_coeff 1 3 0.250789 3.70347
pair_coeff 1 4 0.0793725 3.2745
pair_coeff 1 5 0.105 3.43085
pair_coeff 1 6 0.0679706 3.00099
pair_coeff 1 7 0.0851176 3.34577
pair_coeff 2 2 0.044 2.57113
pair_coeff 2 3 0.162345 3.27361
pair_coeff 2 4 0.0513809 2.84464
pair_coeff 2 5 0.0679706 3.00099
pair_coeff 2 6 0.044 2.57113
pair_coeff 2 7 0.0550999 2.91591
pair_coeff 3 3 0.599 3.97608
pair_coeff 3 4 0.189578 3.54711
pair_coeff 3 5 0.250789 3.70347
pair_coeff 3 6 0.162345 3.27361
pair_coeff 3 7 0.2033 3.61838
pair_coeff 4 4 0.06 3.11815
pair_coeff 4 5 0.0793725 3.2745
pair_coeff 4 6 0.0513809 2.84464
pair_coeff 4 7 0.0643428 3.18942
pair_coeff 5 5 0.105 3.43085
pair_coeff 5 6 0.0679706 3.00099
pair_coeff 5 7 0.0851176 3.34577
pair_coeff 6 6 0.044 2.57113
pair_coeff 6 7 0.0550999 2.91591
pair_coeff 7 7 0.069 3.26069

group			fram type < 5
390 atoms in group fram
group			cation type > 4
66 atoms in group cation
group			center type 7
6 atoms in group center

#------------------------------------------------------------------------------#
# ti/spring definition
#------------------------------------------------------------------------------#

reset_timestep	0

variable		t_s equal 1000000
variable		t_eq equal 500000

variable        t_eq equal 500000-1
variable        t_s equal 1000000+1

fix             fs1 fram ti/spring 10 1000001 499999 function 2
fix             fs2 center ti/spring 1 1000001 499999 function 2

variable        dE equal f_fs1+f_fs2
variable        lambda equal f_fs1[1]

fix				f1 all nve
fix 			f2 all langevin 300 300 100 77229 zero yes
compute 		c1 all temp/com
fix_modify		f2 temp c1

thermo_style	custom step etotal ke pe temp press density vol evdwl etail ecoul elong epair f_fs1 f_fs2
thermo 			1000

#------------------------------------------------------------------------------#
# switching
#------------------------------------------------------------------------------#

### forward integration, save to forward.dat

run             499999

CITE-CITE-CITE-CITE-CITE-CITE-CITE-CITE-CITE-CITE-CITE-CITE-CITE

Your simulation uses code contributions which should be cited:

- ti/spring command:

@article{freitas2016,
  author={Freitas, Rodrigo and Asta, Mark and de Koning, Maurice},
  title={Nonequilibrium free-energy calculation of solids using LAMMPS},
  journal={Computational Materials Science},
  volume={112},
  pages={333--341},
  year={2016},
  publisher={Elsevier}
}

CITE-CITE-CITE-CITE-CITE-CITE-CITE-CITE-CITE-CITE-CITE-CITE-CITE

Ewald initialization ...
  G vector (1/distance) = 0.23481561
  estimated absolute RMS force accuracy = 0.00037577262
  estimated relative force accuracy = 1.1316281e-06
  KSpace vectors: actual max1d max3d = 458 6 1098
                  kxmax kymax kzmax  = 6 6 6
Generated 0 of 21 mixed pair_coeff terms from arithmetic mixing rule
  update every 1 steps, delay 10 steps, check yes
Step         TotEng         KinEng         PotEng          Temp          Press         Density         Volume         E_vdwl         E_tail         E_coul         E_long         E_pair         f_fs1          f_fs2
0   2326.8658      399.33152      1927.5342      294.43396      753.49012      0.40101743     18421.214      321.08744     -4.3577412     -1501.1344     -1193.6031     -2373.6501      0              0
Averages over the last 251 of 501 rows, steps 250000 to 499999:
TotEng KinEng PotEng Temp Press Density Volume E_vdwl E_tail E_coul E_long E_pair f_fs1 f_fs2
2750.15 408.231 2341.92 300.995 -27.7628 0.401017 18421.2 347.187 -4.35774 -1491.19 -1196.49 -2340.49 2.0275 0.00919457
Loop time of 131.717 on 4 procs for 499999 steps with 456 atoms

run             1000001
Ewald initialization ...
  G vector (1/distance) = 0.23481561
  estimated absolute RMS force accuracy = 0.00037577262
  estimated relative force accuracy = 1.1316281e-06
  KSpace vectors: actual max1d max3d = 458 6 1098
                  kxmax kymax kzmax  = 6 6 6
Generated 0 of 21 mixed pair_coeff terms from arithmetic mixing rule
Step         TotEng         KinEng         PotEng          Temp          Press         Density         Volume         E_vdwl         E_tail         E_coul         E_long         E_pair         f_fs1          f_fs2
499999   2724.7879      403.38167      2321.4062      297.4202       136.16439      0.40101743     18421.214      340.12478     -4.3577412     -1487.1729     -1197.4032     -2344.4513      508.90293      2.3078376
Averages over the last 501 of 1002 rows, steps 1000000 to 1500000:
TotEng KinEng PotEng Temp Press Density Volume E_vdwl E_tail E_coul E_long E_pair f_fs1 f_fs2
2718.4 410.258 2308.14 302.49 -40.6725 0.401017 18421.2 348.293 -4.35774 -1496.07 -1197.09 -2344.87 41.8637 2.00171
Loop time of 264.782 on 4 procs for 1000001 steps with 456 atoms

unfix           f4

### backward integration, save to backward.dat

run             499999
Ewald initialization ...
  G vector (1/distance) = 0.23481561
  estimated absolute RMS force accuracy = 0.00037577262
  estimated relative force accuracy = 1.1316281e-06
  KSpace vectors: actual max1d max3d = 458 6 1098
                  kxmax kymax kzmax  = 6 6 6
Generated 0 of 21 mixed pair_coeff terms from arithmetic mixing rule
Step         TotEng         KinEng         PotEng          Temp          Press         Density         Volume         E_vdwl         E_tail         E_coul         E_long         E_pair         f_fs1          f_fs2
1500000   2749.7141      437.29481      2312.4193      322.42494     -885.2224       0.40101743     18421.214      351.44168     -4.3577412     -1506.1546     -1197.9703     -2352.6832      37.576773      1.5500607
Averages over the last 109 of 217 rows, steps 1608000 to 1716000:
TotEng KinEng PotEng Temp Press Density Volume E_vdwl E_tail E_coul E_long E_pair f_fs1 f_fs2
2715.26 409.426 2305.84 301.877 -32.1819 0.401017 18421.2 348.339 -4.35774 -1496.02 -1197.05 -2344.73 38.2772 1.96397
