data_image0
_chemical_formula_structural       C2HC3HFeH2C2HCHC2HSNCH2C2H4C5H2NCHCH2CH2SC2HCH3CH3CHC3SC3FeH2CH2CHS2CHC2Fe2C2SHCH3C2HC2H3C2NH2CHCHCH5CH2CH6SC2HC3H2Fe2HSHSC2SH2CFeCSFeSCSC2HCH2NHCH3CHCHCH2C2HCHCHNCHC2H6CHSCHSHFeCFeC2SCFe2S2H2S2HSH2CSHNHSC2HC3H3C2HCH4CH3SCH4CFeS2FeC2FeS2H3SFe2HCH2SHSC3H4CSHCHNCHCH2CHFeCHCHC2SC2SHFe2CH2CHS2CSCH2FeCHCSNH3CHCHCSH3C2NSHCHCHSC2H4CHFeCHFeNCH3C3SC3H2SH6CHCNH2C2HCH2CH2CH2CSHC2H2CHCNHCHC3H3CHC2H2C4H4C3H2FeHSHC3H2SCHC2SH7C2H3CH2CHC3HC7H2S
_chemical_formula_sum              "C180 H216 Fe24 S48 N12"
_cell_length_a       18.4938
_cell_length_b       17.4834
_cell_length_c       22.1002
_cell_angle_alpha    74.2561
_cell_angle_beta     67.4986
_cell_angle_gamma    69.6083

_space_group_name_H-M_alt    "P 1"
_space_group_IT_number       1

loop_
  _space_group_symop_operation_xyz
  'x, y, z'

loop_
  _atom_site_type_symbol
  _atom_site_label
  _atom_site_symmetry_multiplicity
  _atom_site_fract_x
  _atom_site_fract_y
  _atom_site_fract_z
  _atom_site_occupancy
  C   C1        1.0  0.00541  0.25637  0.12104  1.0000
  C   C2        1.0  0.76216  0.12782  0.97258  1.0000
  H   H1        1.0  0.96356  0.41176  0.93232  1.0000
  C   C3        1.0  0.10270  0.07306  0.97016  1.0000
  C   C4        1.0  0.00456  0.35737  0.91055  1.0000
  C   C5        1.0  0.03457  0.08202  0.89369  1.0000
  H   H2        1.0  0.95524  0.14919  0.04153  1.0000
  Fe  Fe1       1.0  0.23049  0.01732  0.11155  1.0000
  H   H3        1.0  0.12546  0.17219  0.10676  1.0000
  H   H4        1.0  0.88831  0.94042  0.93442  1.0000
  C   C6        1.0  0.78845  0.95942  0.02537  1.0000
  C   C7        1.0  0.04556  0.20690  0.91377  1.0000
  H   H5        1.0  0.16254  0.06234  0.93020  1.0000
  C   C8        1.0  0.19944  0.38437  0.93387  1.0000
  H   H6        1.0  0.02743  0.31085  0.10056  1.0000
  C   C9        1.0  0.06107  0.17767  0.12415  1.0000
  C   C10       1.0  0.99108  0.27975  0.93984  1.0000
  H   H7        1.0  0.02391  0.01992  0.91550  1.0000
  S   S1        1.0  0.85226  0.36265  0.13690  1.0000
  N   N1        1.0  0.03456  0.12334  0.94413  1.0000
  C   C11       1.0  0.20983  0.41320  0.04836  1.0000
  H   H8        1.0  0.10715  0.10392  0.00601  1.0000
  H   H9        1.0  0.94959  0.06063  0.02047  1.0000
  C   C12       1.0  0.83897  0.98526  0.96261  1.0000
  C   C13       1.0  0.95720  0.12401  0.99973  1.0000
  H   H10       1.0  0.09505  0.01088  0.99649  1.0000
  H   H11       1.0  0.90331  0.16128  0.98350  1.0000
  H   H12       1.0  0.21471  0.42532  0.09196  1.0000
  H   H13       1.0  0.93841  0.27853  0.98368  1.0000
  C   C14       1.0  0.82487  0.06948  0.93565  1.0000
  C   C15       1.0  0.24963  0.32369  0.96787  1.0000
  C   C16       1.0  0.92867  0.26933  0.29732  1.0000
  C   C17       1.0  0.20543  0.27313  0.25572  1.0000
  C   C18       1.0  0.09973  0.01107  0.37247  1.0000
  H   H14       1.0  0.97542  0.02037  0.28850  1.0000
  H   H15       1.0  0.14962  0.27644  0.29985  1.0000
  N   N2        1.0  0.86554  0.26004  0.36279  1.0000
  C   C19       1.0  0.79661  0.14642  0.38817  1.0000
  H   H16       1.0  0.82978  0.19925  0.19120  1.0000
  C   C20       1.0  0.75511  0.27378  0.31712  1.0000
  H   H17       1.0  0.97750  0.29042  0.29986  1.0000
  H   H18       1.0  0.90281  0.31504  0.25971  1.0000
  C   C21       1.0  0.96295  0.96243  0.38959  1.0000
  H   H19       1.0  0.09855  0.06150  0.27219  1.0000
  H   H20       1.0  0.81476  0.95740  0.19182  1.0000
  S   S2        1.0  0.18659  0.03725  0.36333  1.0000
  C   C22       1.0  0.92177  0.26435  0.14302  1.0000
  C   C23       1.0  0.89405  0.19366  0.17038  1.0000
  H   H21       1.0  0.92723  0.06094  0.19254  1.0000
  C   C24       1.0  0.06902  0.02941  0.31971  1.0000
  H   H22       1.0  0.13285  0.42222  0.27430  1.0000
  H   H23       1.0  0.76059  0.33386  0.28929  1.0000
  H   H24       1.0  0.19092  0.31847  0.21276  1.0000
  C   C25       1.0  0.94954  0.11507  0.17234  1.0000
  H   H25       1.0  0.22298  0.21099  0.24164  1.0000
  H   H26       1.0  0.24408  0.21564  0.36901  1.0000
  H   H27       1.0  0.79860  0.38943  0.34768  1.0000
  C   C26       1.0  0.80563  0.22652  0.35674  1.0000
  H   H28       1.0  0.95807  0.20934  0.27798  1.0000
  C   C27       1.0  0.82425  0.34213  0.38468  1.0000
  C   C28       1.0  0.99967  0.00599  0.32873  1.0000
  C   C29       1.0  0.78505  0.93774  0.24368  1.0000
  S   S3        1.0  0.10239  0.00757  0.14735  1.0000
  C   C30       1.0  0.03329  0.10671  0.14856  1.0000
  C   C31       1.0  0.24954  0.36530  0.29420  1.0000
  C   C32       1.0  0.10943  0.32120  0.46056  1.0000
  Fe  Fe2       1.0  0.09241  0.02429  0.61336  1.0000
  H   H29       1.0  0.77301  0.33780  0.43193  1.0000
  H   H30       1.0  0.01342  0.36634  0.41659  1.0000
  C   C33       1.0  0.06122  0.97016  0.43351  1.0000
  H   H31       1.0  0.86285  0.19694  0.46165  1.0000
  H   H32       1.0  0.96036  0.98008  0.58487  1.0000
  C   C34       1.0  0.13248  0.42157  0.50255  1.0000
  H   H33       1.0  0.12620  0.26007  0.44989  1.0000
  S   S4        1.0  0.18898  0.05111  0.63462  1.0000
  S   S5        1.0  0.09710  0.12092  0.52356  1.0000
  C   C35       1.0  0.77893  0.12388  0.58935  1.0000
  H   H34       1.0  0.95093  0.23380  0.41585  1.0000
  C   C36       1.0  0.04649  0.38193  0.44046  1.0000
  C   C37       1.0  0.84700  0.05765  0.56986  1.0000
  Fe  Fe3       1.0  0.20138  0.13968  0.53957  1.0000
  Fe  Fe4       1.0  0.19151  0.02353  0.46577  1.0000
  C   C38       1.0  0.90427  0.29614  0.56797  1.0000
  C   C39       1.0  0.90735  0.03095  0.60046  1.0000
  S   S6        1.0  0.22013  0.26253  0.52839  1.0000
  H   H35       1.0  0.85309  0.02762  0.53072  1.0000
  C   C40       1.0  0.15030  0.34021  0.49391  1.0000
  H   H36       1.0  0.91833  0.24689  0.54085  1.0000
  H   H37       1.0  0.86679  0.36722  0.39293  1.0000
  H   H38       1.0  0.83819  0.38825  0.50688  1.0000
  C   C41       1.0  0.90737  0.20664  0.41134  1.0000
  C   C42       1.0  0.85837  0.37506  0.54941  1.0000
  H   H39       1.0  0.83200  0.10560  0.41925  1.0000
  C   C43       1.0  0.93250  0.28017  0.62161  1.0000
  C   C44       1.0  0.99418  0.94482  0.44156  1.0000
  H   H40       1.0  0.08398  0.95607  0.47450  1.0000
  H   H41       1.0  0.96786  0.21792  0.63419  1.0000
  H   H42       1.0  0.94376  0.14518  0.39646  1.0000
  C   C45       1.0  0.77042  0.16282  0.64021  1.0000
  C   C46       1.0  0.86525  0.42195  0.63993  1.0000
  N   N3        1.0  0.94800  0.32466  0.71388  1.0000
  H   H43       1.0  0.86290  0.08923  0.88667  1.0000
  H   H44       1.0  0.86118  0.42245  0.76799  1.0000
  C   C47       1.0  0.92814  0.39793  0.74508  1.0000
  H   H45       1.0  0.05900  0.23303  0.67095  1.0000
  C   C48       1.0  0.91387  0.26102  0.76605  1.0000
  H   H46       1.0  0.95504  0.38254  0.78559  1.0000
  C   C49       1.0  0.91521  0.34298  0.65848  1.0000
  H   H47       1.0  0.82254  0.16440  0.71180  1.0000
  H   H48       1.0  0.84593  0.28090  0.78249  1.0000
  H   H49       1.0  0.19788  0.37413  0.88841  1.0000
  H   H50       1.0  0.06543  0.33727  0.64701  1.0000
  H   H51       1.0  0.77280  0.02357  0.81405  1.0000
  C   C50       1.0  0.03816  0.29288  0.68922  1.0000
  H   H52       1.0  0.93388  0.20061  0.74857  1.0000
  H   H53       1.0  0.18060  0.30088  0.78616  1.0000
  C   C51       1.0  0.12680  0.29492  0.82841  1.0000
  H   H54       1.0  0.93235  0.24948  0.81075  1.0000
  H   H55       1.0  0.14543  0.42119  0.68975  1.0000
  H   H56       1.0  0.09354  0.07107  0.85292  1.0000
  H   H57       1.0  0.06584  0.28215  0.72848  1.0000
  H   H58       1.0  0.98632  0.11913  0.87104  1.0000
  H   H59       1.0  0.15980  0.16417  0.83629  1.0000
  S   S7        1.0  0.97129  0.03336  0.69249  1.0000
  C   C52       1.0  0.82943  0.13453  0.67226  1.0000
  C   C53       1.0  0.11423  0.21694  0.85745  1.0000
  H   H60       1.0  0.82544  0.93155  0.73265  1.0000
  C   C54       1.0  0.89790  0.06870  0.65230  1.0000
  C   C55       1.0  0.76171  0.96554  0.74644  1.0000
  C   C56       1.0  0.07189  0.36502  0.85477  1.0000
  H   H61       1.0  0.08306  0.42511  0.83327  1.0000
  H   H62       1.0  0.21031  0.86162  0.96042  1.0000
  Fe  Fe5       1.0  0.10345  0.81880  0.92498  1.0000
  Fe  Fe6       1.0  0.94016  0.79691  0.01879  1.0000
  H   H63       1.0  0.12599  0.53086  0.03296  1.0000
  S   S8        1.0  0.00723  0.77959  0.91289  1.0000
  H   H64       1.0  0.92320  0.54025  0.99537  1.0000
  S   S9        1.0  0.17069  0.69042  0.95874  1.0000
  C   C57       1.0  0.15944  0.47322  0.01477  1.0000
  C   C58       1.0  0.15468  0.45948  0.95716  1.0000
  S   S10       1.0  0.99341  0.66676  0.05983  1.0000
  H   H65       1.0  0.24659  0.76030  0.06105  1.0000
  H   H66       1.0  0.78406  0.53014  0.06223  1.0000
  C   C59       1.0  0.88279  0.64766  0.92844  1.0000
  Fe  Fe7       1.0  0.09127  0.71345  0.06141  1.0000
  C   C60       1.0  0.87115  0.58517  0.98284  1.0000
  S   S11       1.0  0.80678  0.85485  0.06008  1.0000
  Fe  Fe8       1.0  0.06890  0.65278  0.95460  1.0000
  S   S12       1.0  0.03175  0.84611  0.02833  1.0000
  C   C61       1.0  0.79266  0.57992  0.02064  1.0000
  S   S13       1.0  0.09743  0.53893  0.91242  1.0000
  C   C62       1.0  0.81611  0.70629  0.91226  1.0000
  C   C63       1.0  0.24347  0.64277  0.12425  1.0000
  H   H67       1.0  0.94413  0.65068  0.89857  1.0000
  C   C64       1.0  0.20795  0.77685  0.25371  1.0000
  H   H68       1.0  0.00799  0.71728  0.27068  1.0000
  H   H69       1.0  0.80312  0.78997  0.37914  1.0000
  N   N4        1.0  0.24355  0.77801  0.30351  1.0000
  H   H70       1.0  0.79646  0.62118  0.16281  1.0000
  C   C65       1.0  0.15904  0.50424  0.31253  1.0000
  H   H71       1.0  0.19350  0.71730  0.26223  1.0000
  H   H72       1.0  0.10288  0.55151  0.31103  1.0000
  H   H73       1.0  0.96150  0.90648  0.25392  1.0000
  C   C66       1.0  0.94388  0.75066  0.29556  1.0000
  H   H74       1.0  0.91010  0.70278  0.31763  1.0000
  C   C67       1.0  0.86160  0.55967  0.23081  1.0000
  H   H75       1.0  0.12010  0.83204  0.36261  1.0000
  C   C68       1.0  0.80067  0.59382  0.34139  1.0000
  H   H76       1.0  0.15094  0.82791  0.25484  1.0000
  H   H77       1.0  0.88719  0.82642  0.15724  1.0000
  C   C69       1.0  0.77878  0.84357  0.34751  1.0000
  C   C70       1.0  0.17676  0.78469  0.36800  1.0000
  H   H78       1.0  0.24854  0.78729  0.20185  1.0000
  C   C71       1.0  0.96358  0.87228  0.21719  1.0000
  H   H79       1.0  0.94469  0.77637  0.33601  1.0000
  C   C72       1.0  0.86487  0.54920  0.29463  1.0000
  H   H80       1.0  0.91153  0.52463  0.19441  1.0000
  N   N5        1.0  0.90836  0.81779  0.24864  1.0000
  C   C73       1.0  0.82452  0.86645  0.28052  1.0000
  H   H81       1.0  0.91726  0.50675  0.30805  1.0000
  C   C74       1.0  0.79450  0.61550  0.21329  1.0000
  C   C75       1.0  0.90759  0.77946  0.19699  1.0000
  H   H82       1.0  0.02817  0.83670  0.19620  1.0000
  H   H83       1.0  0.86626  0.73876  0.21852  1.0000
  H   H84       1.0  0.96922  0.74095  0.17279  1.0000
  H   H85       1.0  0.22399  0.91001  0.27594  1.0000
  H   H86       1.0  0.19719  0.57593  0.35375  1.0000
  H   H87       1.0  0.94848  0.91851  0.17509  1.0000
  C   C76       1.0  0.21231  0.51843  0.33617  1.0000
  H   H88       1.0  0.16169  0.72486  0.39085  1.0000
  S   S14       1.0  0.13735  0.66317  0.14890  1.0000
  C   C77       1.0  0.17689  0.42889  0.29191  1.0000
  H   H89       1.0  0.80267  0.58509  0.39131  1.0000
  S   S15       1.0  0.99345  0.71901  0.45101  1.0000
  H   H90       1.0  0.96650  0.91234  0.48862  1.0000
  Fe  Fe9       1.0  0.82102  0.71654  0.61591  1.0000
  C   C78       1.0  0.13541  0.53837  0.62408  1.0000
  Fe  Fe10      1.0  0.00139  0.70227  0.55183  1.0000
  C   C79       1.0  0.07032  0.48254  0.48178  1.0000
  C   C80       1.0  0.17771  0.59371  0.57834  1.0000
  S   S16       1.0  0.17832  0.92270  0.55495  1.0000
  C   C81       1.0  0.02531  0.46220  0.45296  1.0000
  Fe  Fe11      1.0  0.91511  0.63358  0.49417  1.0000
  Fe  Fe12      1.0  0.88022  0.81918  0.48243  1.0000
  S   S17       1.0  0.93074  0.60828  0.59421  1.0000
  S   S18       1.0  0.89249  0.80894  0.58169  1.0000
  H   H91       1.0  0.80153  0.49863  0.57144  1.0000
  H   H92       1.0  0.05816  0.54525  0.48780  1.0000
  S   S19       1.0  0.12640  0.69282  0.54832  1.0000
  S   S20       1.0  0.79945  0.73457  0.51864  1.0000
  H   H93       1.0  0.06984  0.55538  0.63961  1.0000
  S   S21       1.0  0.94147  0.53681  0.43459  1.0000
  H   H94       1.0  0.16580  0.43723  0.52623  1.0000
  H   H95       1.0  0.24187  0.70295  0.61612  1.0000
  C   C82       1.0  0.83800  0.43746  0.58578  1.0000
  S   S22       1.0  0.87945  0.92800  0.40130  1.0000
  H   H96       1.0  0.19182  0.80449  0.40456  1.0000
  N   N6        1.0  0.20473  0.68564  0.72289  1.0000
  H   H97       1.0  0.82998  0.75306  0.86965  1.0000
  S   S23       1.0  0.16887  0.90061  0.84111  1.0000
  C   C83       1.0  0.17815  0.46261  0.65256  1.0000
  C   C84       1.0  0.20531  0.72691  0.77283  1.0000
  H   H98       1.0  0.89490  0.75021  0.72746  1.0000
  C   C85       1.0  0.95641  0.73722  0.72804  1.0000
  C   C86       1.0  0.07749  0.63977  0.74987  1.0000
  C   C87       1.0  0.99514  0.79992  0.70568  1.0000
  H   H99       1.0  0.84636  0.47305  0.66612  1.0000
  H   H100      1.0  0.96701  0.60887  0.76813  1.0000
  H   H101      1.0  0.10578  0.57668  0.76759  1.0000
  C   C88       1.0  0.24642  0.59641  0.73673  1.0000
  C   C89       1.0  0.07482  0.78304  0.70538  1.0000
  H   H102      1.0  0.17128  0.70189  0.82362  1.0000
  C   C90       1.0  0.99724  0.65753  0.75069  1.0000
  H   H103      1.0  0.21824  0.56828  0.78838  1.0000
  H   H104      1.0  0.17638  0.79456  0.76446  1.0000
  H   H105      1.0  0.96424  0.86197  0.68745  1.0000
  H   H106      1.0  0.10157  0.83411  0.68866  1.0000
  C   C91       1.0  0.11939  0.70199  0.72568  1.0000
  H   H107      1.0  0.24516  0.56177  0.70208  1.0000
  H   H108      1.0  0.23867  0.78799  0.64844  1.0000
  H   H109      1.0  0.95243  0.44812  0.70820  1.0000
  S   S24       1.0  0.72165  0.23542  0.12354  1.0000
  C   C92       1.0  0.25569  0.33903  0.02443  1.0000
  H   H110      1.0  0.60294  0.11082  0.96404  1.0000
  H   H111      1.0  0.28640  0.26690  0.94851  1.0000
  H   H112      1.0  0.66269  0.14692  0.06291  1.0000
  H   H113      1.0  0.69389  0.04360  0.91956  1.0000
  C   C93       1.0  0.71176  0.10185  0.03502  1.0000
  Fe  Fe13      1.0  0.39038  0.97259  0.14085  1.0000
  S   S25       1.0  0.32733  0.27076  0.06110  1.0000
  S   S26       1.0  0.27666  0.09339  0.01336  1.0000
  Fe  Fe14      1.0  0.32952  0.14110  0.06638  1.0000
  C   C94       1.0  0.40908  0.42646  0.89863  1.0000
  C   C95       1.0  0.62873  0.07218  0.92403  1.0000
  Fe  Fe15      1.0  0.74113  0.35505  0.12250  1.0000
  S   S27       1.0  0.55516  0.34347  0.08638  1.0000
  S   S28       1.0  0.44785  0.04394  0.04431  1.0000
  H   H114      1.0  0.59953  0.02094  0.94089  1.0000
  H   H115      1.0  0.40327  0.37245  0.93893  1.0000
  H   H116      1.0  0.52207  0.05001  0.12871  1.0000
  S   S29       1.0  0.71696  0.41342  0.02619  1.0000
  Fe  Fe16      1.0  0.68840  0.29742  0.03132  1.0000
  Fe  Fe17      1.0  0.39089  0.98919  0.00025  1.0000
  H   H117      1.0  0.68515  0.99784  0.10972  1.0000
  C   C96       1.0  0.72415  0.01763  0.06116  1.0000
  H   H118      1.0  0.49634  0.40117  0.97497  1.0000
  H   H119      1.0  0.50710  0.20549  0.91368  1.0000
  S   S30       1.0  0.45445  0.95075  0.90027  1.0000
  H   H120      1.0  0.49076  0.12186  0.89354  1.0000
  S   S31       1.0  0.74769  0.23337  0.94206  1.0000
  C   C97       1.0  0.47871  0.99835  0.23170  1.0000
  C   C98       1.0  0.29451  0.21507  0.32130  1.0000
  C   C99       1.0  0.68940  0.16549  0.34395  1.0000
  H   H121      1.0  0.67809  0.04037  0.24428  1.0000
  H   H122      1.0  0.64485  0.14242  0.33935  1.0000
  H   H123      1.0  0.34848  0.21486  0.33187  1.0000
  H   H124      1.0  0.30969  0.15448  0.30531  1.0000
  C   C100      1.0  0.48005  0.07306  0.30912  1.0000
  S   S32       1.0  0.52641  0.21639  0.27171  1.0000
  H   H125      1.0  0.60449  0.00040  0.36276  1.0000
  C   C101      1.0  0.50982  0.13151  0.25629  1.0000
  H   H126      1.0  0.36094  0.33876  0.31835  1.0000
  N   N7        1.0  0.27185  0.28590  0.27066  1.0000
  C   C102      1.0  0.73933  0.11676  0.38161  1.0000
  H   H127      1.0  0.46700  0.08031  0.35963  1.0000
  C   C103      1.0  0.46543  0.00593  0.29682  1.0000
  H   H128      1.0  0.65832  0.28082  0.28241  1.0000
  H   H129      1.0  0.44125  0.96158  0.33782  1.0000
  C   C104      1.0  0.30340  0.38289  0.31696  1.0000
  H   H130      1.0  0.32805  0.33580  0.16969  1.0000
  Fe  Fe18      1.0  0.59111  0.29062  0.17882  1.0000
  C   C105      1.0  0.69717  0.24379  0.31186  1.0000
  H   H131      1.0  0.39631  0.28845  0.21717  1.0000
  C   C106      1.0  0.66462  0.96273  0.33960  1.0000
  H   H132      1.0  0.36153  0.22506  0.18916  1.0000
  C   C107      1.0  0.34251  0.28364  0.20911  1.0000
  C   C108      1.0  0.50907  0.05656  0.17913  1.0000
  S   S33       1.0  0.61250  0.40759  0.18374  1.0000
  C   C109      1.0  0.52457  0.12289  0.19140  1.0000
  C   C110      1.0  0.70644  0.98529  0.27310  1.0000
  S   S34       1.0  0.27456  0.07342  0.16576  1.0000
  H   H133      1.0  0.54617  0.16851  0.15069  1.0000
  Fe  Fe19      1.0  0.27587  0.95581  0.57109  1.0000
  Fe  Fe20      1.0  0.62110  0.27796  0.57955  1.0000
  C   C111      1.0  0.60024  0.02970  0.54813  1.0000
  H   H134      1.0  0.50780  0.13855  0.47073  1.0000
  H   H135      1.0  0.35760  0.04020  0.60749  1.0000
  C   C112      1.0  0.45248  0.12030  0.50577  1.0000
  H   H136      1.0  0.61434  0.08279  0.51236  1.0000
  S   S35       1.0  0.70668  0.15964  0.54791  1.0000
  S   S36       1.0  0.52309  0.35565  0.53569  1.0000
  C   C113      1.0  0.51850  0.02926  0.58529  1.0000
  S   S37       1.0  0.66527  0.38422  0.57393  1.0000
  C   C114      1.0  0.50629  0.95657  0.63137  1.0000
  H   H137      1.0  0.31957  0.14878  0.61013  1.0000
  H   H138      1.0  0.51781  0.18944  0.56010  1.0000
  Fe  Fe21      1.0  0.44406  0.36669  0.64078  1.0000
  C   C115      1.0  0.45946  0.17524  0.59184  1.0000
  H   H139      1.0  0.40967  0.23195  0.58467  1.0000
  C   C116      1.0  0.36911  0.09250  0.61843  1.0000
  S   S38       1.0  0.29639  0.04734  0.47746  1.0000
  N   N8        1.0  0.45070  0.10257  0.57586  1.0000
  H   H140      1.0  0.72764  0.96604  0.53000  1.0000
  H   H141      1.0  0.39949  0.17242  0.49769  1.0000
  H   H142      1.0  0.45050  0.06522  0.49096  1.0000
  C   C117      1.0  0.66565  0.96290  0.55777  1.0000
  H   H143      1.0  0.73368  0.05549  0.40616  1.0000
  C   C118      1.0  0.52890  0.16585  0.87484  1.0000
  H   H144      1.0  0.66085  0.21817  0.78688  1.0000
  C   C119      1.0  0.31211  0.93978  0.80427  1.0000
  S   S39       1.0  0.31675  0.35545  0.67697  1.0000
  H   H145      1.0  0.71835  0.21448  0.65517  1.0000
  H   H146      1.0  0.46110  0.40195  0.85608  1.0000
  H   H147      1.0  0.36228  0.08180  0.67208  1.0000
  C   C120      1.0  0.73075  0.01863  0.79310  1.0000
  C   C121      1.0  0.59850  0.05741  0.77865  1.0000
  N   N9        1.0  0.61691  0.12152  0.86073  1.0000
  S   S40       1.0  0.61372  0.39609  0.76091  1.0000
  H   H148      1.0  0.63734  0.23146  0.87080  1.0000
  C   C122      1.0  0.37666  0.94987  0.81714  1.0000
  H   H149      1.0  0.53481  0.09055  0.78883  1.0000
  C   C123      1.0  0.63041  0.00441  0.73172  1.0000
  H   H150      1.0  0.30850  0.95633  0.75442  1.0000
  S   S41       1.0  0.53947  0.27986  0.68429  1.0000
  C   C124      1.0  0.64806  0.06622  0.81076  1.0000
  C   C125      1.0  0.66263  0.18455  0.83714  1.0000
  H   H151      1.0  0.51628  0.20755  0.82990  1.0000
  H   H152      1.0  0.42275  0.97506  0.77747  1.0000
  H   H153      1.0  0.44651  0.94953  0.66111  1.0000
  H   H154      1.0  0.59174  0.99937  0.70740  1.0000
  C   C126      1.0  0.71181  0.95863  0.71561  1.0000
  H   H155      1.0  0.72770  0.15732  0.83398  1.0000
  Fe  Fe22      1.0  0.57709  0.39164  0.67665  1.0000
  C   C127      1.0  0.37955  0.93033  0.88203  1.0000
  H   H156      1.0  0.45768  0.16486  0.64431  1.0000
  Fe  Fe23      1.0  0.58628  0.45633  0.08745  1.0000
  N   N10       1.0  0.66273  0.76459  0.93491  1.0000
  C   C128      1.0  0.41324  0.60923  0.08645  1.0000
  H   H157      1.0  0.66612  0.62918  0.03395  1.0000
  H   H158      1.0  0.71342  0.86849  0.90001  1.0000
  H   H159      1.0  0.32204  0.88207  0.98341  1.0000
  C   C129      1.0  0.62504  0.72406  0.90878  1.0000
  C   C130      1.0  0.37468  0.55015  0.13009  1.0000
  C   C131      1.0  0.36694  0.68531  0.06203  1.0000
  S   S42       1.0  0.51925  0.58850  0.06069  1.0000
  C   C132      1.0  0.72552  0.63747  0.00436  1.0000
  C   C133      1.0  0.35343  0.51508  0.98017  1.0000
  C   C134      1.0  0.28215  0.70168  0.08028  1.0000
  H   H160      1.0  0.70830  0.73943  0.13543  1.0000
  H   H161      1.0  0.50973  0.50239  0.95832  1.0000
  S   S43       1.0  0.34206  0.90884  0.09532  1.0000
  H   H162      1.0  0.35875  0.56259  0.00134  1.0000
  H   H163      1.0  0.34919  0.46075  0.02045  1.0000
  H   H164      1.0  0.43747  0.63976  0.93029  1.0000
  H   H165      1.0  0.39668  0.73120  0.02823  1.0000
  H   H166      1.0  0.57303  0.74983  0.03229  1.0000
  H   H167      1.0  0.55006  0.84833  0.98445  1.0000
  C   C135      1.0  0.60173  0.79723  0.99571  1.0000
  H   H168      1.0  0.62979  0.82147  0.02038  1.0000
  C   C136      1.0  0.31974  0.89810  0.93342  1.0000
  N   N11       1.0  0.42242  0.49297  0.91965  1.0000
  H   H169      1.0  0.29484  0.53933  0.96949  1.0000
  H   H170      1.0  0.60734  0.66998  0.94409  1.0000
  C   C137      1.0  0.49825  0.45816  0.93746  1.0000
  C   C138      1.0  0.73494  0.70357  0.95046  1.0000
  H   H171      1.0  0.55148  0.44077  0.89340  1.0000
  C   C139      1.0  0.25656  0.88611  0.92036  1.0000
  H   H172      1.0  0.56909  0.76744  0.89809  1.0000
  H   H173      1.0  0.47604  0.57430  0.21040  1.0000
  C   C140      1.0  0.43539  0.60068  0.25471  1.0000
  H   H174      1.0  0.56987  0.72861  0.34129  1.0000
  H   H175      1.0  0.61325  0.85803  0.22651  1.0000
  C   C141      1.0  0.73368  0.65002  0.32437  1.0000
  H   H176      1.0  0.72133  0.81943  0.20502  1.0000
  H   H177      1.0  0.32548  0.46889  0.35712  1.0000
  C   C142      1.0  0.36868  0.66907  0.25082  1.0000
  S   S44       1.0  0.45599  0.91735  0.21596  1.0000
  H   H178      1.0  0.29492  0.86022  0.32118  1.0000
  C   C143      1.0  0.31317  0.70440  0.30799  1.0000
  C   C144      1.0  0.27279  0.85270  0.28335  1.0000
  H   H179      1.0  0.60037  0.76914  0.16623  1.0000
  H   H180      1.0  0.32439  0.84992  0.23625  1.0000
  C   C145      1.0  0.45002  0.56663  0.31508  1.0000
  H   H181      1.0  0.65881  0.81706  0.29066  1.0000
  C   C146      1.0  0.28438  0.45794  0.33828  1.0000
  N   N12       1.0  0.65808  0.72515  0.24244  1.0000
  H   H182      1.0  0.36195  0.69401  0.20233  1.0000
  C   C147      1.0  0.66318  0.80832  0.24129  1.0000
  H   H183      1.0  0.50181  0.51366  0.31808  1.0000
  C   C148      1.0  0.39849  0.60143  0.37165  1.0000
  C   C149      1.0  0.33141  0.66970  0.36835  1.0000
  C   C150      1.0  0.65539  0.72296  0.17657  1.0000
  H   H184      1.0  0.68610  0.68373  0.36242  1.0000
  H   H185      1.0  0.52630  0.75347  0.27758  1.0000
  H   H186      1.0  0.57856  0.64777  0.30146  1.0000
  C   C151      1.0  0.58024  0.71303  0.29265  1.0000
  H   H187      1.0  0.65353  0.66108  0.17379  1.0000
  C   C152      1.0  0.70035  0.89172  0.37655  1.0000
  C   C153      1.0  0.72815  0.66241  0.25988  1.0000
  H   H188      1.0  0.26041  0.52107  0.18208  1.0000
  H   H189      1.0  0.41005  0.49137  0.14923  1.0000
  C   C154      1.0  0.28983  0.56725  0.14922  1.0000
  C   C155      1.0  0.49987  0.72942  0.57497  1.0000
  C   C156      1.0  0.51727  0.65601  0.48969  1.0000
  C   C157      1.0  0.45439  0.71884  0.47108  1.0000
  H   H190      1.0  0.41106  0.57569  0.41836  1.0000
  H   H191      1.0  0.29466  0.69482  0.41369  1.0000
  H   H192      1.0  0.51785  0.73353  0.61489  1.0000
  H   H193      1.0  0.37046  0.48089  0.57153  1.0000
  C   C158      1.0  0.43479  0.79047  0.55833  1.0000
  C   C159      1.0  0.26252  0.57188  0.55889  1.0000
  C   C160      1.0  0.26309  0.44223  0.63441  1.0000
  H   H194      1.0  0.43567  0.71411  0.43181  1.0000
  H   H195      1.0  0.70183  0.84253  0.61283  1.0000
  Fe  Fe24      1.0  0.55954  0.46309  0.53914  1.0000
  H   H196      1.0  0.29542  0.61462  0.52397  1.0000
  S   S45       1.0  0.37813  0.86856  0.60676  1.0000
  H   H197      1.0  0.36249  0.83331  0.49269  1.0000
  C   C161      1.0  0.65141  0.89333  0.60404  1.0000
  C   C162      1.0  0.54043  0.66163  0.54120  1.0000
  C   C163      1.0  0.41275  0.78605  0.50571  1.0000
  H   H198      1.0  0.58938  0.61330  0.55524  1.0000
  H   H199      1.0  0.66761  0.87445  0.42838  1.0000
  S   S46       1.0  0.56254  0.56681  0.45300  1.0000
  C   C164      1.0  0.30512  0.49604  0.58628  1.0000
  H   H200      1.0  0.66720  0.66051  0.63954  1.0000
  C   C165      1.0  0.57212  0.88969  0.64024  1.0000
  C   C166      1.0  0.25190  0.90840  0.85607  1.0000
  S   S47       1.0  0.73202  0.70943  0.71824  1.0000
  H   H201      1.0  0.43738  0.64337  0.70559  1.0000
  H   H202      1.0  0.31972  0.69716  0.64823  1.0000
  H   H203      1.0  0.68493  0.44263  0.83522  1.0000
  H   H204      1.0  0.62129  0.53651  0.65603  1.0000
  H   H205      1.0  0.56180  0.83489  0.67588  1.0000
  H   H206      1.0  0.44208  0.76450  0.84775  1.0000
  H   H207      1.0  0.66782  0.70135  0.86182  1.0000
  C   C167      1.0  0.64444  0.54335  0.69178  1.0000
  C   C168      1.0  0.67903  0.49099  0.79337  1.0000
  H   H208      1.0  0.26813  0.71928  0.77145  1.0000
  H   H209      1.0  0.31135  0.58572  0.73102  1.0000
  H   H210      1.0  0.72611  0.56825  0.82102  1.0000
  C   C169      1.0  0.43857  0.71034  0.83529  1.0000
  H   H211      1.0  0.72132  0.81771  0.83509  1.0000
  H   H212      1.0  0.43014  0.51832  0.78592  1.0000
  C   C170      1.0  0.64838  0.48243  0.74739  1.0000
  H   H213      1.0  0.73667  0.91852  0.67858  1.0000
  C   C171      1.0  0.25310  0.71961  0.65621  1.0000
  C   C172      1.0  0.67019  0.61346  0.68263  1.0000
  C   C173      1.0  0.69793  0.62330  0.73003  1.0000
  H   H214      1.0  0.43995  0.76830  0.73574  1.0000
  C   C174      1.0  0.43497  0.63874  0.88248  1.0000
  C   C175      1.0  0.42866  0.56727  0.86815  1.0000
  C   C176      1.0  0.43525  0.64233  0.75547  1.0000
  C   C177      1.0  0.43059  0.57069  0.80252  1.0000
  C   C178      1.0  0.43786  0.71244  0.77209  1.0000
  C   C179      1.0  0.70251  0.56200  0.78530  1.0000
  C   C180      1.0  0.68248  0.83649  0.88438  1.0000
  H   H215      1.0  0.35218  0.44844  0.88510  1.0000
  H   H216      1.0  0.62683  0.88296  0.87561  1.0000
  S   S48       1.0  0.47385  0.48003  0.64224  1.0000
