data_image0
_chemical_formula_structural       CH4CH2NHSHCHCH4CH3CHSHFeH4SC4H2CHCFeHFeS3CHSFeC3HCH3S2FeC3HCNH3CHCHCFeH3CHCFeH3SCHCFeCHNH4SCHCSH2FeH2FeS2Fe2HS2C3H2S2HC2H2C3SCHCH2CHCHNHCH2C6SH3NHCH3CH4CHCH5NHSC2H7C5HSCSH4FeSHSHC7HNH3SC2H5CH3CHCHC3SH3C2FeHCH2SCSFeS2H6CHCH4CHNHSFeC2SC5FeSFeSHFeHFeS3C2H2CHSH5CHNH2C2HCH2FeSFeHS2HCHC3H5SNHC2HNH5CSH2CH2CHC3HCHFeCH2CH3SHSH2CS2HCHCHFeHCNH2CH3C2H3
_chemical_formula_sum              "C120 H192 N12 S48 Fe24"
_cell_length_a       28.6232
_cell_length_b       28.789
_cell_length_c       30.0152
_cell_angle_alpha    89.4042
_cell_angle_beta     89.6477
_cell_angle_gamma    120.575

_space_group_name_H-M_alt    "P 1"
_space_group_IT_number       1

loop_
  _space_group_symop_operation_xyz
  'x, y, z'

loop_
  _atom_site_type_symbol
  _atom_site_label
  _atom_site_symmetry_multiplicity
  _atom_site_fract_x
  _atom_site_fract_y
  _atom_site_fract_z
  _atom_site_occupancy
  C   C1        1.0  0.45503  0.50468  0.09487  1.0000
  H   H1        1.0  0.41801  0.46876  0.10885  1.0000
  H   H2        1.0  0.48864  0.51540  0.11873  1.0000
  H   H3        1.0  0.36309  0.49893  0.06826  1.0000
  H   H4        1.0  0.46593  0.49260  0.06314  1.0000
  C   C2        1.0  0.46384  0.03434  0.52362  1.0000
  H   H5        1.0  0.50283  0.03905  0.51509  1.0000
  H   H6        1.0  0.36348  0.25045  0.53089  1.0000
  N   N1        1.0  0.34557  0.23125  0.60070  1.0000
  H   H7        1.0  0.31415  0.27131  0.64060  1.0000
  S   S1        1.0  0.23373  0.42738  0.75416  1.0000
  H   H8        1.0  0.29590  0.14738  0.58503  1.0000
  C   C3        1.0  0.42482  0.39076  0.69045  1.0000
  H   H9        1.0  0.35037  0.27263  0.77546  1.0000
  C   C4        1.0  0.16743  0.49818  0.72036  1.0000
  H   H10       1.0  0.42864  0.28206  0.73112  1.0000
  H   H11       1.0  0.09109  0.48094  0.78154  1.0000
  H   H12       1.0  0.37943  0.31512  0.61568  1.0000
  H   H13       1.0  0.06233  0.46752  0.72698  1.0000
  C   C5        1.0  0.37012  0.22030  0.63951  1.0000
  H   H14       1.0  0.47626  0.40869  0.77939  1.0000
  H   H15       1.0  0.31991  0.28713  0.58188  1.0000
  H   H16       1.0  0.27205  0.18989  0.56317  1.0000
  C   C6        1.0  0.38124  0.24328  0.56118  1.0000
  H   H17       1.0  0.36676  0.41348  0.70988  1.0000
  S   S2        1.0  0.52176  0.27613  0.58496  1.0000
  H   H18       1.0  0.46674  0.48570  0.75449  1.0000
  Fe  Fe1       1.0  0.30249  0.50972  0.73459  1.0000
  H   H19       1.0  0.41151  0.25488  0.64555  1.0000
  H   H20       1.0  0.44549  0.42390  0.66676  1.0000
  H   H21       1.0  0.34561  0.21310  0.67047  1.0000
  H   H22       1.0  0.37386  0.18409  0.63434  1.0000
  S   S3        1.0  0.36609  0.49439  0.76184  1.0000
  C   C7        1.0  0.33931  0.27816  0.61005  1.0000
  C   C8        1.0  0.29198  0.18322  0.59225  1.0000
  C   C9        1.0  0.44238  0.35369  0.69602  1.0000
  C   C10       1.0  0.35394  0.34313  0.74631  1.0000
  H   H23       1.0  0.16854  0.47707  0.75118  1.0000
  H   H24       1.0  0.20964  0.52169  0.70688  1.0000
  C   C11       1.0  0.37080  0.30533  0.75137  1.0000
  H   H25       1.0  0.42172  0.27994  0.56624  1.0000
  C   C12       1.0  0.38052  0.38524  0.71518  1.0000
  Fe  Fe2       1.0  0.48466  0.19141  0.61208  1.0000
  H   H26       1.0  0.26431  0.17274  0.62165  1.0000
  Fe  Fe3       1.0  0.52088  0.29904  0.65608  1.0000
  S   S4        1.0  0.49922  0.36379  0.66500  1.0000
  S   S5        1.0  0.40766  0.12299  0.58315  1.0000
  S   S6        1.0  0.47813  0.21387  0.68242  1.0000
  C   C13       1.0  0.41503  0.31059  0.72630  1.0000
  H   H27       1.0  0.14288  0.46674  0.69564  1.0000
  S   S7        1.0  0.30175  0.33890  0.78076  1.0000
  Fe  Fe4       1.0  0.29738  0.41513  0.78611  1.0000
  C   C14       1.0  0.49349  0.50957  0.78230  1.0000
  C   C15       1.0  0.41155  0.07067  0.55639  1.0000
  C   C16       1.0  0.08994  0.50040  0.74953  1.0000
  H   H28       1.0  0.38830  0.20935  0.55408  1.0000
  C   C17       1.0  0.46167  0.07586  0.54596  1.0000
  H   H29       1.0  0.49881  0.11231  0.55428  1.0000
  H   H30       1.0  0.07146  0.52543  0.75691  1.0000
  H   H31       1.0  0.13546  0.35226  0.85772  1.0000
  S   S8        1.0  0.15664  0.46235  0.84538  1.0000
  S   S9        1.0  0.29050  0.44664  0.85279  1.0000
  Fe  Fe5       1.0  0.23283  0.46638  0.81836  1.0000
  C   C18       1.0  0.10053  0.40238  0.86708  1.0000
  C   C19       1.0  0.10041  0.35377  0.86935  1.0000
  C   C20       1.0  0.05476  0.40376  0.88228  1.0000
  H   H32       1.0  0.41118  0.52599  0.02255  1.0000
  C   C21       1.0  0.43161  0.44545  0.83722  1.0000
  N   N2        1.0  0.48831  0.47438  0.82054  1.0000
  H   H33       1.0  0.42551  0.41705  0.86506  1.0000
  H   H34       1.0  0.05456  0.44121  0.88074  1.0000
  H   H35       1.0  0.50028  0.40757  0.83407  1.0000
  C   C22       1.0  0.50344  0.43476  0.80611  1.0000
  H   H36       1.0  0.41897  0.47382  0.84939  1.0000
  C   C23       1.0  0.05488  0.30701  0.88712  1.0000
  H   H37       1.0  0.40305  0.42148  0.81058  1.0000
  C   C24       1.0  0.52451  0.50777  0.85648  1.0000
  Fe  Fe6       1.0  0.35585  0.52724  0.82627  1.0000
  H   H38       1.0  0.05521  0.26964  0.88910  1.0000
  H   H39       1.0  0.52126  0.48259  0.88602  1.0000
  H   H40       1.0  0.49198  0.63292  0.06553  1.0000
  C   C25       1.0  0.47044  0.79670  0.26913  1.0000
  H   H41       1.0  0.18318  0.73566  0.24591  1.0000
  C   C26       1.0  0.49634  0.59694  0.06909  1.0000
  Fe  Fe7       1.0  0.54249  0.79218  0.17596  1.0000
  H   H42       1.0  0.46652  0.58014  0.15444  1.0000
  H   H43       1.0  0.27164  0.74249  0.22673  1.0000
  H   H44       1.0  0.31084  0.73569  0.27014  1.0000
  S   S10       1.0  0.50082  0.70470  0.15898  1.0000
  C   C27       1.0  0.44964  0.74126  0.27479  1.0000
  H   H45       1.0  0.39592  0.53093  0.14652  1.0000
  C   C28       1.0  0.43233  0.56555  0.13054  1.0000
  Fe  Fe8       1.0  0.51196  0.73238  0.08750  1.0000
  C   C29       1.0  0.18350  0.71693  0.27841  1.0000
  H   H46       1.0  0.46168  0.72026  0.25204  1.0000
  N   N3        1.0  0.44618  0.55045  0.08763  1.0000
  H   H47       1.0  0.24797  0.67814  0.25400  1.0000
  H   H48       1.0  0.26952  0.81640  0.26779  1.0000
  H   H49       1.0  0.42322  0.59858  0.12575  1.0000
  H   H50       1.0  0.15986  0.67233  0.27491  1.0000
  S   S11       1.0  0.51646  0.83395  0.22539  1.0000
  C   C30       1.0  0.26862  0.72239  0.25937  1.0000
  H   H51       1.0  0.53160  0.60851  0.09116  1.0000
  C   C31       1.0  0.40124  0.53500  0.05611  1.0000
  S   S12       1.0  0.43671  0.68682  0.04559  1.0000
  H   H52       1.0  0.54105  0.91167  0.15050  1.0000
  H   H53       1.0  0.39234  0.56817  0.05147  1.0000
  Fe  Fe9       1.0  0.34945  0.85234  0.47384  1.0000
  H   H54       1.0  0.21638  0.71821  0.36211  1.0000
  H   H55       1.0  0.06642  0.75118  0.36345  1.0000
  Fe  Fe10      1.0  0.23507  0.77173  0.44075  1.0000
  S   S13       1.0  0.24118  0.69981  0.46151  1.0000
  S   S14       1.0  0.16497  0.76958  0.40352  1.0000
  Fe  Fe11      1.0  0.28041  0.74653  0.52364  1.0000
  Fe  Fe12      1.0  0.32514  0.74656  0.43082  1.0000
  H   H56       1.0  0.13412  0.65582  0.40797  1.0000
  S   S15       1.0  0.26687  0.81488  0.50558  1.0000
  S   S16       1.0  0.31724  0.81626  0.40716  1.0000
  C   C32       1.0  0.05577  0.61224  0.37675  1.0000
  C   C33       1.0  0.10193  0.65893  0.39224  1.0000
  C   C34       1.0  0.10610  0.70929  0.38743  1.0000
  H   H57       1.0  0.39832  0.67030  0.31502  1.0000
  H   H58       1.0  0.27900  0.72232  0.34776  1.0000
  S   S17       1.0  0.35389  0.70344  0.38541  1.0000
  S   S18       1.0  0.36458  0.78608  0.49479  1.0000
  H   H59       1.0  0.05292  0.57347  0.38060  1.0000
  C   C35       1.0  0.39855  0.74002  0.34075  1.0000
  C   C36       1.0  0.41378  0.71305  0.31050  1.0000
  H   H60       1.0  0.32869  0.94533  0.51369  1.0000
  H   H61       1.0  0.40806  0.81669  0.35815  1.0000
  C   C37       1.0  0.41602  0.98709  0.51192  1.0000
  C   C38       1.0  0.41884  0.79531  0.33474  1.0000
  C   C39       1.0  0.36579  0.98149  0.52276  1.0000
  S   S19       1.0  0.42123  0.93601  0.48440  1.0000
  C   C40       1.0  0.23755  0.70881  0.33572  1.0000
  H   H62       1.0  0.21627  0.66418  0.33276  1.0000
  C   C41       1.0  0.06348  0.71235  0.36735  1.0000
  H   H63       1.0  0.24840  0.80612  0.32533  1.0000
  H   H64       1.0  0.16130  0.72760  0.30311  1.0000
  C   C42       1.0  0.45462  0.82349  0.29905  1.0000
  H   H65       1.0  0.31121  0.81050  0.30923  1.0000
  C   C43       1.0  0.26842  0.79479  0.29905  1.0000
  H   H66       1.0  0.47078  0.86642  0.29506  1.0000
  N   N4        1.0  0.23948  0.73571  0.29304  1.0000
  H   H67       1.0  0.28750  0.69350  0.68396  1.0000
  C   C44       1.0  0.40326  0.82260  0.62522  1.0000
  H   H68       1.0  0.46878  0.94887  0.57915  1.0000
  H   H69       1.0  0.30454  0.62114  0.71036  1.0000
  C   C45       1.0  0.28378  0.67326  0.61459  1.0000
  C   C46       1.0  0.28995  0.66677  0.66023  1.0000
  C   C47       1.0  0.29905  0.62560  0.67530  1.0000
  C   C48       1.0  0.30112  0.59026  0.64483  1.0000
  C   C49       1.0  0.29612  0.59758  0.59919  1.0000
  C   C50       1.0  0.28772  0.63910  0.58405  1.0000
  S   S20       1.0  0.26925  0.72307  0.59694  1.0000
  H   H70       1.0  0.22192  0.60125  0.74739  1.0000
  H   H71       1.0  0.37059  0.91574  0.59216  1.0000
  H   H72       1.0  0.38933  0.88537  0.68344  1.0000
  N   N5        1.0  0.41356  0.87785  0.61730  1.0000
  H   H73       1.0  0.18254  0.58250  0.67113  1.0000
  C   C51       1.0  0.42462  0.90639  0.66005  1.0000
  H   H74       1.0  0.46050  0.90900  0.67668  1.0000
  H   H75       1.0  0.28326  0.64396  0.54880  1.0000
  H   H76       1.0  0.43896  0.82297  0.64001  1.0000
  C   C52       1.0  0.18025  0.57544  0.76129  1.0000
  H   H77       1.0  0.43296  0.94838  0.65498  1.0000
  H   H78       1.0  0.35795  0.85651  0.56346  1.0000
  H   H79       1.0  0.12662  0.58690  0.69335  1.0000
  H   H80       1.0  0.32797  0.84996  0.61733  1.0000
  C   C53       1.0  0.46086  0.90751  0.58691  1.0000
  H   H81       1.0  0.49833  0.91143  0.60139  1.0000
  C   C54       1.0  0.36536  0.87495  0.59685  1.0000
  H   H82       1.0  0.45400  0.88669  0.55443  1.0000
  H   H83       1.0  0.36788  0.79908  0.64813  1.0000
  H   H84       1.0  0.39357  0.79963  0.59366  1.0000
  H   H85       1.0  0.29817  0.57064  0.57542  1.0000
  H   H86       1.0  0.32469  0.01911  0.55262  1.0000
  N   N6        1.0  0.14487  0.53326  0.72965  1.0000
  H   H87       1.0  0.16410  0.60223  0.76966  1.0000
  S   S21       1.0  0.30829  0.53561  0.66239  1.0000
  C   C55       1.0  0.14193  0.55880  0.68759  1.0000
  C   C56       1.0  0.36362  0.02334  0.54477  1.0000
  H   H88       1.0  0.53577  0.53213  0.76890  1.0000
  H   H89       1.0  0.11474  0.52814  0.66329  1.0000
  H   H90       1.0  0.48204  0.53980  0.79195  1.0000
  H   H91       1.0  0.34902  0.57739  0.91471  1.0000
  H   H92       1.0  0.35107  0.62120  0.98609  1.0000
  H   H93       1.0  0.51396  0.53819  0.86770  1.0000
  H   H94       1.0  0.52396  0.69098  0.99143  1.0000
  C   C57       1.0  0.38717  0.60191  0.93141  1.0000
  C   C58       1.0  0.43766  0.65891  0.99373  1.0000
  C   C59       1.0  0.48576  0.66595  0.97503  1.0000
  C   C60       1.0  0.48450  0.64101  0.93464  1.0000
  C   C61       1.0  0.43525  0.60907  0.91266  1.0000
  H   H95       1.0  0.52188  0.64700  0.92010  1.0000
  S   S22       1.0  0.43523  0.57817  0.86222  1.0000
  C   C62       1.0  0.38844  0.62683  0.97179  1.0000
  S   S23       1.0  0.29818  0.55021  0.79661  1.0000
  H   H96       1.0  0.18406  0.55740  0.79310  1.0000
  H   H97       1.0  0.50670  0.58839  0.03556  1.0000
  H   H98       1.0  0.87312  0.40633  0.24352  1.0000
  H   H99       1.0  0.91429  0.42085  0.16695  1.0000
  Fe  Fe13      1.0  0.80500  0.50610  0.23441  1.0000
  S   S24       1.0  0.80264  0.49152  0.16057  1.0000
  H   H100      1.0  0.89628  0.48868  0.20005  1.0000
  S   S25       1.0  0.73687  0.50938  0.26763  1.0000
  H   H101      1.0  0.80162  0.32203  0.18377  1.0000
  C   C63       1.0  0.91497  0.42786  0.25695  1.0000
  C   C64       1.0  0.80456  0.43434  0.14310  1.0000
  C   C65       1.0  0.81440  0.42953  0.09803  1.0000
  C   C66       1.0  0.82020  0.38630  0.08391  1.0000
  C   C67       1.0  0.81648  0.34797  0.11493  1.0000
  C   C68       1.0  0.80514  0.35202  0.15980  1.0000
  C   C69       1.0  0.79888  0.39494  0.17383  1.0000
  H   H102      1.0  0.81850  0.45972  0.07404  1.0000
  N   N7        1.0  0.95402  0.46816  0.22453  1.0000
  H   H103      1.0  0.96490  0.40900  0.18993  1.0000
  H   H104      1.0  0.78987  0.39764  0.20840  1.0000
  H   H105      1.0  0.91379  0.44726  0.28858  1.0000
  S   S26       1.0  0.83033  0.29738  0.09962  1.0000
  C   C70       1.0  0.95459  0.44083  0.18323  1.0000
  C   C71       1.0  0.93780  0.50823  0.21401  1.0000
  H   H106      1.0  0.64085  0.05700  0.12927  1.0000
  H   H107      1.0  0.98442  0.46979  0.15832  1.0000
  H   H108      1.0  0.92575  0.39681  0.26554  1.0000
  H   H109      1.0  0.02228  0.46679  0.25248  1.0000
  H   H110      1.0  0.82885  0.38332  0.04923  1.0000
  C   C72       1.0  0.00875  0.49583  0.24410  1.0000
  H   H111      1.0  0.69687  0.05552  0.15460  1.0000
  H   H112      1.0  0.03926  0.52689  0.22079  1.0000
  H   H113      1.0  0.00938  0.51660  0.27547  1.0000
  C   C73       1.0  0.65884  0.03123  0.13566  1.0000
  H   H114      1.0  0.59399  0.34938  0.42818  1.0000
  C   C74       1.0  0.68057  0.35518  0.50820  1.0000
  H   H115      1.0  0.59357  0.31459  0.50414  1.0000
  C   C75       1.0  0.63170  0.34129  0.48738  1.0000
  C   C76       1.0  0.68117  0.39484  0.42164  1.0000
  C   C77       1.0  0.63204  0.36098  0.44426  1.0000
  S   S27       1.0  0.67919  0.41851  0.36760  1.0000
  H   H116      1.0  0.62510  0.48777  0.36222  1.0000
  H   H117      1.0  0.76828  0.43553  0.42542  1.0000
  H   H118      1.0  0.76780  0.40028  0.50155  1.0000
  C   C78       1.0  0.72982  0.38940  0.48569  1.0000
  C   C79       1.0  0.73018  0.40943  0.44258  1.0000
  Fe  Fe14      1.0  0.75523  0.47663  0.32898  1.0000
  H   H119      1.0  0.65338  0.48205  0.43846  1.0000
  C   C80       1.0  0.68732  0.52458  0.43447  1.0000
  H   H120      1.0  0.58951  0.51528  0.42621  1.0000
  H   H121      1.0  0.72271  0.52252  0.42141  1.0000
  S   S28       1.0  0.81711  0.46440  0.29285  1.0000
  C   C81       1.0  0.77603  0.29604  0.71516  1.0000
  S   S29       1.0  0.60419  0.31357  0.67043  1.0000
  Fe  Fe15      1.0  0.60202  0.28432  0.60093  1.0000
  S   S30       1.0  0.68134  0.32992  0.56198  1.0000
  S   S31       1.0  0.58136  0.18744  0.74747  1.0000
  H   H122      1.0  0.78560  0.39031  0.68849  1.0000
  H   H123      1.0  0.68403  0.26402  0.63293  1.0000
  H   H124      1.0  0.74758  0.28559  0.74404  1.0000
  H   H125      1.0  0.64247  0.30291  0.76438  1.0000
  H   H126      1.0  0.71830  0.34567  0.70964  1.0000
  H   H127      1.0  0.78288  0.26160  0.71094  1.0000
  C   C82       1.0  0.70101  0.25830  0.66435  1.0000
  H   H128      1.0  0.70432  0.22168  0.66059  1.0000
  C   C83       1.0  0.74650  0.35309  0.68122  1.0000
  H   H129      1.0  0.72916  0.36154  0.65116  1.0000
  H   H130      1.0  0.67077  0.24953  0.69132  1.0000
  H   H131      1.0  0.79754  0.28357  0.62972  1.0000
  H   H132      1.0  0.81520  0.33198  0.72461  1.0000
  C   C84       1.0  0.79168  0.31824  0.63640  1.0000
  H   H133      1.0  0.83214  0.35424  0.64271  1.0000
  N   N8        1.0  0.75388  0.30644  0.67433  1.0000
  H   H134      1.0  0.77585  0.32653  0.60524  1.0000
  S   S32       1.0  0.56507  0.19716  0.62192  1.0000
  Fe  Fe16      1.0  0.56154  0.22605  0.69045  1.0000
  C   C85       1.0  0.63258  0.22680  0.78567  1.0000
  C   C86       1.0  0.65673  0.28296  0.78640  1.0000
  S   S33       1.0  0.69289  0.08385  0.97486  1.0000
  C   C87       1.0  0.69218  0.23130  0.84530  1.0000
  C   C88       1.0  0.69903  0.31326  0.81619  1.0000
  C   C89       1.0  0.78629  0.06331  0.90638  1.0000
  C   C90       1.0  0.71693  0.28750  0.84566  1.0000
  C   C91       1.0  0.85629  0.04064  0.89812  1.0000
  Fe  Fe17      1.0  0.82264  0.27412  0.02706  1.0000
  S   S34       1.0  0.83670  0.20562  0.01310  1.0000
  Fe  Fe18      1.0  0.79302  0.28056  0.93096  1.0000
  S   S35       1.0  0.80388  0.21219  0.90970  1.0000
  H   H135      1.0  0.91294  0.12770  0.95010  1.0000
  Fe  Fe19      1.0  0.76052  0.17143  0.97372  1.0000
  H   H136      1.0  0.71770  0.35670  0.81673  1.0000
  Fe  Fe20      1.0  0.87953  0.25207  0.95056  1.0000
  S   S36       1.0  0.95288  0.24915  0.92502  1.0000
  S   S37       1.0  0.74293  0.23663  0.99172  1.0000
  S   S38       1.0  0.87221  0.32391  0.96785  1.0000
  C   C92       1.0  0.00924  0.30853  0.90263  1.0000
  C   C93       1.0  0.00928  0.35706  0.89994  1.0000
  H   H137      1.0  0.97441  0.35875  0.91168  1.0000
  H   H138      1.0  0.63133  0.15763  0.81522  1.0000
  C   C94       1.0  0.87143  0.12635  0.87027  1.0000
  H   H139      1.0  0.86014  0.14271  0.95641  1.0000
  S   S39       1.0  0.77102  0.32643  0.88176  1.0000
  H   H140      1.0  0.77667  0.09556  0.91294  1.0000
  H   H141      1.0  0.85605  0.10935  0.83685  1.0000
  H   H142      1.0  0.86363  0.16011  0.87518  1.0000
  H   H143      1.0  0.91638  0.14478  0.86989  1.0000
  H   H144      1.0  0.77967  0.08351  0.02512  1.0000
  C   C95       1.0  0.86807  0.10953  0.94944  1.0000
  H   H145      1.0  0.70524  0.21103  0.86819  1.0000
  N   N9        1.0  0.84550  0.08492  0.90601  1.0000
  H   H146      1.0  0.84997  0.07956  0.97732  1.0000
  H   H147      1.0  0.76773  0.04501  0.87401  1.0000
  C   C96       1.0  0.65022  0.20111  0.81534  1.0000
  C   C97       1.0  0.74457  0.04327  0.02597  1.0000
  H   H148      1.0  0.90066  0.05571  0.89780  1.0000
  C   C98       1.0  0.69676  0.03318  0.00517  1.0000
  H   H149      1.0  0.76526  0.03182  0.93286  1.0000
  H   H150      1.0  0.54567  0.45495  0.79255  1.0000
  Fe  Fe21      1.0  0.58442  0.71625  0.15205  1.0000
  S   S40       1.0  0.59287  0.64446  0.17182  1.0000
  Fe  Fe22      1.0  0.62777  0.82390  0.10288  1.0000
  H   H151      1.0  0.82823  0.58683  0.10176  1.0000
  S   S41       1.0  0.62569  0.80200  0.17542  1.0000
  S   S42       1.0  0.59306  0.73870  0.07916  1.0000
  H   H152      1.0  0.64217  0.01664  0.22457  1.0000
  C   C99       1.0  0.79768  0.66914  0.15960  1.0000
  H   H153      1.0  0.65603  0.93599  0.13510  1.0000
  C   C100      1.0  0.60581  0.99379  0.20343  1.0000
  C   C101      1.0  0.64538  0.65001  0.20620  1.0000
  C   C102      1.0  0.64630  0.60300  0.21713  1.0000
  H   H154      1.0  0.86953  0.65868  0.10884  1.0000
  H   H155      1.0  0.68773  0.56877  0.25131  1.0000
  H   H156      1.0  0.61449  0.56443  0.20534  1.0000
  H   H157      1.0  0.61871  0.91016  0.18616  1.0000
  H   H158      1.0  0.55045  0.97361  0.12709  1.0000
  S   S43       1.0  0.70545  0.89647  0.07693  1.0000
  N   N10       1.0  0.62042  0.98083  0.15988  1.0000
  H   H159      1.0  0.76114  0.67285  0.16474  1.0000
  C   C103      1.0  0.72953  0.65488  0.25866  1.0000
  C   C104      1.0  0.68807  0.60540  0.24317  1.0000
  H   H160      1.0  0.75901  0.59973  0.06292  1.0000
  N   N11       1.0  0.78611  0.62407  0.12977  1.0000
  H   H161      1.0  0.83056  0.70844  0.14591  1.0000
  H   H162      1.0  0.68600  0.73613  0.21401  1.0000
  H   H163      1.0  0.68438  0.97028  0.18609  1.0000
  H   H164      1.0  0.75990  0.74046  0.26036  1.0000
  H   H165      1.0  0.75451  0.56533  0.18298  1.0000
  C   C105      1.0  0.68637  0.69959  0.22209  1.0000
  S   S44       1.0  0.86833  0.58945  0.25450  1.0000
  H   H166      1.0  0.78421  0.00876  0.06325  1.0000
  H   H167      1.0  0.84977  0.61349  0.15617  1.0000
  C   C106      1.0  0.70130  0.94868  0.04946  1.0000
  H   H168      1.0  0.73104  0.63601  0.08968  1.0000
  H   H169      1.0  0.81071  0.66324  0.19307  1.0000
  C   C107      1.0  0.64606  0.94798  0.16717  1.0000
  H   H170      1.0  0.70427  0.57339  0.15416  1.0000
  C   C108      1.0  0.74264  0.57293  0.14972  1.0000
  C   C109      1.0  0.76833  0.63324  0.08611  1.0000
  C   C110      1.0  0.83568  0.62084  0.12376  1.0000
  H   H171      1.0  0.80022  0.67148  0.07003  1.0000
  C   C111      1.0  0.72816  0.70192  0.24841  1.0000
  H   H172      1.0  0.57671  0.95632  0.22232  1.0000
  Fe  Fe23      1.0  0.80018  0.58983  0.29195  1.0000
  C   C112      1.0  0.57089  0.95009  0.13324  1.0000
  H   H173      1.0  0.58045  0.93953  0.10016  1.0000
  H   H174      1.0  0.93761  0.53011  0.24429  1.0000
  C   C113      1.0  0.74700  0.00094  0.04758  1.0000
  H   H175      1.0  0.67054  0.02255  0.10270  1.0000
  H   H176      1.0  0.58631  0.01855  0.19933  1.0000
  H   H177      1.0  0.96574  0.53878  0.18909  1.0000
  S   S45       1.0  0.54736  0.81951  0.10488  1.0000
  H   H178      1.0  0.73383  0.53770  0.12878  1.0000
  S   S46       1.0  0.78429  0.65945  0.28953  1.0000
  H   H179      1.0  0.75573  0.61250  0.38556  1.0000
  H   H180      1.0  0.73034  0.63268  0.43174  1.0000
  C   C114      1.0  0.01689  0.66553  0.35250  1.0000
  S   S47       1.0  0.95659  0.55555  0.33700  1.0000
  S   S48       1.0  0.81572  0.55775  0.35554  1.0000
  H   H181      1.0  0.98428  0.66842  0.33729  1.0000
  C   C115      1.0  0.01295  0.61527  0.35706  1.0000
  H   H182      1.0  0.61321  0.58021  0.40028  1.0000
  C   C116      1.0  0.71910  0.61175  0.39925  1.0000
  H   H183      1.0  0.63386  0.57571  0.45585  1.0000
  Fe  Fe24      1.0  0.87735  0.54864  0.31530  1.0000
  H   H184      1.0  0.70988  0.63619  0.37575  1.0000
  C   C117      1.0  0.62522  0.55685  0.42244  1.0000
  N   N12       1.0  0.67275  0.55591  0.40408  1.0000
  H   H185      1.0  0.64812  0.55278  0.33599  1.0000
  H   H186      1.0  0.69791  0.54254  0.46815  1.0000
  C   C118      1.0  0.65928  0.53036  0.35997  1.0000
  H   H187      1.0  0.69440  0.52924  0.34543  1.0000
  H   H188      1.0  0.61792  0.89875  0.03042  1.0000
  H   H189      1.0  0.61407  0.97290  0.99101  1.0000
  C   C119      1.0  0.65111  0.98098  0.00720  1.0000
  C   C120      1.0  0.65318  0.93896  0.02959  1.0000
  H   H190      1.0  0.83723  0.00883  0.92467  1.0000
  H   H191      1.0  0.83976  0.02109  0.86562  1.0000
  H   H192      1.0  0.56768  0.53014  0.84512  1.0000
